<?xml version="1.0" encoding="UTF-8"?>

<!-- generated on 2024-03-17 18:57:22 by Eclipse SUMO netedit Version 1.19.0
-->

<routes xmlns:xsi="http://www.w3.org/2001/XMLSchema-instance" xsi:noNamespaceSchemaLocation="http://sumo.dlr.de/xsd/routes_file.xsd">
    <!-- Vehicles, persons and containers (sorted by depart) -->
    <vType id="bus" length="5" maxSpeed="30" accel="1.2" decel="2.5" sigma="0.1" speedDev="0.1" vClass="bus"/>
    <route id="t_0" edges="686912267#1 686912267#4 -714993864#4 -714993864#1 -758653380#3 -758653380#0 -618466860#10 -618466860#9 -618466860#8 -618466860#6 -618466860#3 -618466860#0 -972770700#2 -618466892#0 -344129907#1 -36725831#1 -622710149#9 -622710149#5 -622710149#3 -622710149#1 -735030182#9 -344547180#3 -344547180#1 344337688#0 344337688#1 344337707#0 344337707#1 344337707#2 -344547223#11 -344547223#8 -344547223#4 -344547223#2 -344547223#1 152047931#1 344551705#11 344551705#14 344547294#2 -684584386#14 344897474#2 684586686#16 684586686#17 684586686#21 -308670711#5 -308670711#1 -308670729#12 -308670729#9 -308670729#8 -308670729#7 -308670729#1 -686912267#4 -686912267#3 -686912267#1 686912267#1"/>
    <flow id="f_1" color="1,1,0" begin="0" end="7200" period="900" type="bus" route="t_0">
        <stop busStop="bs_0" duration="30"/>
        <stop busStop="bs_1" duration="30"/>
        <stop busStop="bs_2" duration="30"/>
        <stop busStop="bs_3" duration="30"/>
        <stop busStop="bs_4" duration="30"/>
        <stop busStop="bs_5" duration="30"/>
        <stop busStop="bs_6" duration="30"/>
        <stop busStop="bs_7" duration="30"/>
        <stop busStop="bs_8" duration="30"/>
        <stop busStop="bs_9" duration="30"/>
        <stop busStop="bs_10" duration="30"/>
        <stop busStop="bs_11" duration="30"/>
        <stop busStop="bs_12" duration="30"/>
        <stop busStop="bs_13" duration="30"/>
        <stop busStop="bs_14" duration="30"/>
        <stop busStop="bs_15" duration="30"/>
        <stop busStop="bs_16" duration="30"/>
        <stop busStop="bs_17" duration="30"/>
        <stop busStop="bs_18" duration="30"/>
        <stop busStop="bs_19" duration="30"/>
        <stop busStop="bs_20" duration="30"/>
        <stop busStop="bs_21" duration="30"/>
        <stop busStop="bs_22" duration="30"/>
        <stop busStop="bs_23" duration="30"/>
    </flow>
</routes>
