<?xml version="1.0" encoding="UTF-8"?>

<!-- generated on 2024-03-17 02:54:47.913620 by ptlines2flows.py UNKNOWN
<configuration>
    <net-file value="osm.net.xml"/>
    <ptlines-file value="testline.xml"/>
    <ptstops-file value="bustop.hand"/>
    <output-file value="bus.rou.xml"/>
</configuration>
-->

<routes xmlns:xsi="http://www.w3.org/2001/XMLSchema-instance" xsi:noNamespaceSchemaLocation="http://sumo.dlr.de/xsd/routes_file.xsd">
    <vType id="bus" length="15" maxSpeed="30" accel="1.2" decel="2.5" sigma="0.1" speedDev="0.1" vClass="bus"/>
    <vType id="pedestrian" length="0.3" width="0.5" maxSpeed="2.0" accel="0.2" decel="1.5" sigma="0.2" speedDev="0.2" vClass="pedestrian"/>

    <flow id="busFlow1" type="bus" route= begin="0" end="500" number="100" departPos="last">
        <route >    
    </flow>
    <personFlow id="pedestrian" type="pedestrian" begin="0" end="0" number="100" departPos="-30">
        <walk from="686912267#1" to="-308670729#7" arrivalPos="-0.1"/>
    </personFlow>
</routes>
