<?xml version="1.0" encoding="UTF-8"?>

<!-- generated on 2024-03-17 18:57:22 by Eclipse SUMO netedit Version 1.19.0
-->

<routes xmlns:xsi="http://www.w3.org/2001/XMLSchema-instance" xsi:noNamespaceSchemaLocation="http://sumo.dlr.de/xsd/routes_file.xsd">
    <!-- Vehicles, persons and containers (sorted by depart) -->
    <vType id="v1" length="5" maxSpeed="30" accel="1.2" decel="2.5" sigma="0.1" speedDev="0.1" vClass="bus"/>
    <route id="t_0" edges="686912267#1 686912267#2 686912267#3 686912267#4 -714993864#5 -714993864#4 -714993864#1 -758653380#3 -758653380#2 -758653380#1 -758653380#0 -618466860#10 -618466860#9 -618466860#8 -618466860#7 -618466860#6 -618466860#5 -618466860#3 -618466860#2 -618466860#0 -972770700#2 -972770700#1 -972770700#0 -618466892#1 -618466892#0 -35206664 -622710149#13 -622710149#12 36725831#1 -36725831#1 -622710149#11 -622710149#10 -622710149#9 -622710149#8 -622710149#6 -622710149#5 -622710149#3 -622710149#2 -622710149#1 -622710149#0 -308670735#0 -735030182#9 -344547180#5 -344547180#4 -344547180#3 -344547180#2 -344547180#1 -344547180#0 -344547255 344337688#0 344337688#1 344337707#0 344337707#1 344337707#2 -344547272#0 -344547223#11 -344547223#10 -344547223#9 -344547223#8 -344547223#7 -344547223#6 -344547223#5 -344547223#4 -344547223#3 -344547223#2 -344547223#1 152047931#1 344551705#9 344551705#10 344551705#11 344551705#12 344551705#13 344551705#14 344547294#1 344547294#2 -684584386#15 -684584386#14 -684584386#13 344897474#0 344897474#1 344897474#2 344897474#4 344897474#6 684586686#16 684586686#17 684586686#18 684586686#19 684586686#20 684586686#21 -308670711#6 -308670711#5 -308670711#4 -308670711#3 -308670711#2 -308670711#1 -308670711#0 -308670729#12 -308670729#11 -308670729#9 -308670729#8 -308670729#7 -308670729#5 -308670729#3 -308670729#2 -308670729#1 -686912267#4 -686912267#3 -686912267#2 -686912267#1 -686912267#0 686912267#0 686912267#1"/>
    <flow id="f_1" color="1,1,0" begin="0" end="7200" period="200" type="v1" route="t_0">
        <stop busStop="bs_0" duration="30"/>
        <stop busStop="bs_1" duration="30"/>
        <stop busStop="bs_2" duration="30"/>
        <stop busStop="bs_3" duration="30"/>
        <stop busStop="bs_4" duration="30"/>
        <stop busStop="bs_5" duration="30"/>
        <stop busStop="bs_6" duration="30"/>
        <stop busStop="bs_7" duration="30"/>
        <stop busStop="bs_8" duration="30"/>
        <stop busStop="bs_9" duration="30"/>
        <stop busStop="bs_10" duration="30"/>
        <stop busStop="bs_11" duration="30"/>
        <stop busStop="bs_12" duration="30"/>
        <stop busStop="bs_13" duration="30"/>
        <stop busStop="bs_14" duration="30"/>
        <stop busStop="bs_15" duration="30"/>
        <stop busStop="bs_16" duration="30"/>
        <stop busStop="bs_17" duration="30"/>
        <stop busStop="bs_18" duration="30"/>
        <stop busStop="bs_19" duration="30"/>
        <stop busStop="bs_20" duration="30"/>
        <stop busStop="bs_21" duration="30"/>
        <stop busStop="bs_22" duration="30"/>
        <stop busStop="bs_23" duration="30"/>
    </flow>
</routes>
