<?xml version="1.0" encoding="UTF-8"?>

<!-- generated on 2024-03-19 00:51:40.079423 by gridDistricts.py UNKNOWN
<configuration>
    <net-file value="/Users/hideki-h/projects/geosim4/data/osm.net.xml"/>
    <output value="/Users/hideki-h/projects/geosim4/data/grid.taz.add.xml"/>
</configuration>
-->

<additional xmlns:xsi="http://www.w3.org/2001/XMLSchema-instance" xsi:noNamespaceSchemaLocation="http://sumo.dlr.de/xsd/additional_file.xsd">
    <taz id="8_34" shape="751.0,3351.0 849.0,3351.0 849.0,3449.0 751.0,3449.0 751.0,3351.0" color="255,201,0" edges="-58609809#20 58609809#20"/>
    <taz id="10_28" shape="951.0,2751.0 1049.0,2751.0 1049.0,2849.0 951.0,2849.0 951.0,2751.0" color="255,0,113" edges="-355525565#0 355525565#0"/>
    <taz id="10_121" shape="951.0,12051.0 1049.0,12051.0 1049.0,12149.0 951.0,12149.0 951.0,12051.0" color="255,0,172" edges="-154136948 154136948"/>
    <taz id="11_28" shape="1051.0,2751.0 1149.0,2751.0 1149.0,2849.0 1051.0,2849.0 1051.0,2751.0" color="8,0,255" edges="-457856865 457856865"/>
    <taz id="11_29" shape="1051.0,2851.0 1149.0,2851.0 1149.0,2949.0 1051.0,2949.0 1051.0,2851.0" color="0,255,138" edges="-457856866#0 457856866#0"/>
    <taz id="11_31" shape="1051.0,3051.0 1149.0,3051.0 1149.0,3149.0 1051.0,3149.0 1051.0,3051.0" color="0,120,255" edges="-246730492#0 -768988275 246730492#0"/>
    <taz id="11_32" shape="1051.0,3151.0 1149.0,3151.0 1149.0,3249.0 1051.0,3249.0 1051.0,3151.0" color="0,16,255" edges="768988275"/>
    <taz id="11_42" shape="1051.0,4151.0 1149.0,4151.0 1149.0,4249.0 1051.0,4249.0 1051.0,4151.0" color="255,0,20" edges="-59926611 59926611"/>
    <taz id="11_45" shape="1051.0,4451.0 1149.0,4451.0 1149.0,4549.0 1051.0,4549.0 1051.0,4451.0" color="0,50,255" edges="-126178929 126178929"/>
    <taz id="12_28" shape="1151.0,2751.0 1249.0,2751.0 1249.0,2849.0 1151.0,2849.0 1151.0,2751.0" color="50,255,0" edges="-355525599#0 -769371137 355525599#0 769371137"/>
    <taz id="12_29" shape="1151.0,2851.0 1249.0,2851.0 1249.0,2949.0 1151.0,2949.0 1151.0,2851.0" color="0,255,130" edges="355525599#2 457856866#1 769371128"/>
    <taz id="12_30" shape="1151.0,2951.0 1249.0,2951.0 1249.0,3049.0 1151.0,3049.0 1151.0,2951.0" color="12,255,0" edges="-126185735 -355525565#1 126185735 355525565#1"/>
    <taz id="12_31" shape="1151.0,3051.0 1249.0,3051.0 1249.0,3149.0 1151.0,3149.0 1151.0,3051.0" color="0,169,255" edges="-355586386#0 -355586386#1 -768988276 355586386#1 768988276"/>
    <taz id="12_32" shape="1151.0,3151.0 1249.0,3151.0 1249.0,3249.0 1151.0,3249.0 1151.0,3151.0" color="0,255,26" edges="-246730492#1 -457860413 246730492#1 355586386#0 457860413"/>
    <taz id="12_33" shape="1151.0,3251.0 1249.0,3251.0 1249.0,3349.0 1151.0,3349.0 1151.0,3251.0" color="105,0,255" edges="-545368087 545368087"/>
    <taz id="12_36" shape="1151.0,3551.0 1249.0,3551.0 1249.0,3649.0 1151.0,3649.0 1151.0,3551.0" color="0,255,246" edges="-126178392 126178392"/>
    <taz id="12_38" shape="1151.0,3751.0 1249.0,3751.0 1249.0,3849.0 1151.0,3849.0 1151.0,3751.0" color="255,0,34" edges="-126179342"/>
    <taz id="12_41" shape="1151.0,4051.0 1249.0,4051.0 1249.0,4149.0 1151.0,4149.0 1151.0,4051.0" color="0,210,255" edges="-991824220 991824220"/>
    <taz id="12_50" shape="1151.0,4951.0 1249.0,4951.0 1249.0,5049.0 1151.0,5049.0 1151.0,4951.0" color="255,80,0" edges="-126179400#0 126179400#0"/>
    <taz id="12_51" shape="1151.0,5051.0 1249.0,5051.0 1249.0,5149.0 1151.0,5149.0 1151.0,5051.0" color="255,0,134" edges="-991820526 991820526"/>
    <taz id="12_62" shape="1151.0,6151.0 1249.0,6151.0 1249.0,6249.0 1151.0,6249.0 1151.0,6151.0" color="146,0,255" edges="126178402 126178551"/>
    <taz id="13_28" shape="1251.0,2751.0 1349.0,2751.0 1349.0,2849.0 1251.0,2849.0 1251.0,2751.0" color="0,173,255" edges="-355525615#0 -355525615#1 355525615#0 355525615#1"/>
    <taz id="13_29" shape="1251.0,2851.0 1349.0,2851.0 1349.0,2949.0 1251.0,2949.0 1251.0,2851.0" color="171,255,0" edges="-355525599#2 -355525599#3 -355525599#4 -769371148 -769371149 -769390023 355525599#3 355525599#4 769371148 769371149 769390023"/>
    <taz id="13_30" shape="1251.0,2951.0 1349.0,2951.0 1349.0,3049.0 1251.0,3049.0 1251.0,2951.0" color="255,0,248" edges="126185721 355525599#5"/>
    <taz id="13_32" shape="1251.0,3151.0 1349.0,3151.0 1349.0,3249.0 1251.0,3249.0 1251.0,3151.0" color="67,0,255" edges="-246730492#3 246730492#3"/>
    <taz id="13_33" shape="1251.0,3251.0 1349.0,3251.0 1349.0,3349.0 1251.0,3349.0 1251.0,3251.0" color="255,152,0" edges="-126185795 126185795 159842499#7 246730492#4"/>
    <taz id="13_35" shape="1251.0,3451.0 1349.0,3451.0 1349.0,3549.0 1251.0,3549.0 1251.0,3451.0" color="137,0,255" edges="-126178446 -58609809#19 126178446 58609809#19"/>
    <taz id="13_36" shape="1251.0,3551.0 1349.0,3551.0 1349.0,3649.0 1251.0,3649.0 1251.0,3551.0" color="243,255,0" edges="-126179399"/>
    <taz id="13_37" shape="1251.0,3651.0 1349.0,3651.0 1349.0,3749.0 1251.0,3749.0 1251.0,3651.0" color="6,0,255" edges="-126179302 126179302"/>
    <taz id="13_38" shape="1251.0,3751.0 1349.0,3751.0 1349.0,3849.0 1251.0,3849.0 1251.0,3751.0" color="255,0,38" edges="126179342"/>
    <taz id="13_39" shape="1251.0,3851.0 1349.0,3851.0 1349.0,3949.0 1251.0,3949.0 1251.0,3851.0" color="255,114,0" edges="-159842499#1 -58609813#0 159842499#1 58609813#0"/>
    <taz id="13_40" shape="1251.0,3951.0 1349.0,3951.0 1349.0,4049.0 1251.0,4049.0 1251.0,3951.0" color="255,71,0" edges="-159842499#0 -58609812#6 58609811"/>
    <taz id="13_41" shape="1251.0,4051.0 1349.0,4051.0 1349.0,4149.0 1251.0,4149.0 1251.0,4051.0" color="211,0,255" edges="-126179023 -58609820#0 126179023 58609820#0 58609820#1"/>
    <taz id="13_42" shape="1251.0,4151.0 1349.0,4151.0 1349.0,4249.0 1251.0,4249.0 1251.0,4151.0" color="0,156,255" edges="-126179368 126179368"/>
    <taz id="13_50" shape="1251.0,4951.0 1349.0,4951.0 1349.0,5049.0 1251.0,5049.0 1251.0,4951.0" color="42,0,255" edges="-126178950"/>
    <taz id="13_51" shape="1251.0,5051.0 1349.0,5051.0 1349.0,5149.0 1251.0,5149.0 1251.0,5051.0" color="115,0,255" edges="-126179400#1 126178950 126179400#1"/>
    <taz id="13_86" shape="1251.0,8551.0 1349.0,8551.0 1349.0,8649.0 1251.0,8649.0 1251.0,8551.0" color="0,255,125" edges="-126178683#1 126178683#1"/>
    <taz id="13_116" shape="1251.0,11551.0 1349.0,11551.0 1349.0,11649.0 1251.0,11649.0 1251.0,11551.0" color="255,0,202" edges="-154134436 154134436"/>
    <taz id="13_132" shape="1251.0,13151.0 1349.0,13151.0 1349.0,13249.0 1251.0,13249.0 1251.0,13151.0" color="0,255,218" edges="-154140570 154140570"/>
    <taz id="14_27" shape="1351.0,2651.0 1449.0,2651.0 1449.0,2749.0 1351.0,2749.0 1351.0,2651.0" color="255,0,221" edges="-355525603 355525603"/>
    <taz id="14_28" shape="1351.0,2751.0 1449.0,2751.0 1449.0,2849.0 1351.0,2849.0 1351.0,2751.0" color="238,0,255" edges="-355525611#0 -769371150 -769371178 355525611#0 355525611#2 769371150 769371178"/>
    <taz id="14_29" shape="1351.0,2851.0 1449.0,2851.0 1449.0,2949.0 1351.0,2949.0 1351.0,2851.0" color="35,0,255" edges="-355525611#2 -355525611#3 -355525615#2 -769371151 126185748 355525611#3 355525615#2 769371151"/>
    <taz id="14_30" shape="1351.0,2951.0 1449.0,2951.0 1449.0,3049.0 1351.0,3049.0 1351.0,2951.0" color="19,0,255" edges="-1139244838 -355525602#0 -355525602#1 355525602#0 355525602#1 355525602#2 769390024"/>
    <taz id="14_31" shape="1351.0,3051.0 1449.0,3051.0 1449.0,3149.0 1351.0,3149.0 1351.0,3051.0" color="0,255,175" edges="-355525573#1 355525573#1"/>
    <taz id="14_33" shape="1351.0,3251.0 1449.0,3251.0 1449.0,3349.0 1351.0,3349.0 1351.0,3251.0" color="255,180,0" edges="-58609809#18"/>
    <taz id="14_35" shape="1351.0,3451.0 1449.0,3451.0 1449.0,3549.0 1351.0,3549.0 1351.0,3451.0" color="0,158,255" edges="-159842499#6 159842499#6"/>
    <taz id="14_36" shape="1351.0,3551.0 1449.0,3551.0 1449.0,3649.0 1351.0,3649.0 1351.0,3551.0" color="0,255,167" edges="-126178314 126178314"/>
    <taz id="14_37" shape="1351.0,3651.0 1449.0,3651.0 1449.0,3749.0 1351.0,3749.0 1351.0,3651.0" color="255,99,0" edges="126179338#0 126179399"/>
    <taz id="14_38" shape="1351.0,3751.0 1449.0,3751.0 1449.0,3849.0 1351.0,3849.0 1351.0,3751.0" color="255,152,0" edges="-126179338#0 -159842499#2 -159842499#3 159842499#2 159842499#3"/>
    <taz id="14_39" shape="1351.0,3851.0 1449.0,3851.0 1449.0,3949.0 1351.0,3949.0 1351.0,3851.0" color="29,0,255" edges="-126179338#1 -58609813#1 -58609816 126179338#1 58609813#1"/>
    <taz id="14_40" shape="1351.0,3951.0 1449.0,3951.0 1449.0,4049.0 1351.0,4049.0 1351.0,3951.0" color="0,188,255" edges="-58609812#4 -58609812#5 -991825682 379459613#0 58609812#4 58609812#5 58609812#6 58609817 991825682"/>
    <taz id="14_41" shape="1351.0,4051.0 1449.0,4051.0 1449.0,4149.0 1351.0,4149.0 1351.0,4051.0" color="255,0,179" edges="-58609820#1 -58609820#2 58609820#2"/>
    <taz id="14_43" shape="1351.0,4251.0 1449.0,4251.0 1449.0,4349.0 1351.0,4349.0 1351.0,4251.0" color="189,0,255" edges="-126179392 126179392"/>
    <taz id="14_44" shape="1351.0,4351.0 1449.0,4351.0 1449.0,4449.0 1351.0,4449.0 1351.0,4351.0" color="255,4,0" edges="-126178330#0 126178330#0"/>
    <taz id="14_53" shape="1351.0,5251.0 1449.0,5251.0 1449.0,5349.0 1351.0,5349.0 1351.0,5251.0" color="137,0,255" edges="-126178539 126178539"/>
    <taz id="14_66" shape="1351.0,6551.0 1449.0,6551.0 1449.0,6649.0 1351.0,6649.0 1351.0,6551.0" color="255,0,147" edges="-126179129 126179129"/>
    <taz id="15_28" shape="1451.0,2751.0 1549.0,2751.0 1549.0,2849.0 1451.0,2849.0 1451.0,2751.0" color="0,255,149" edges="-355525556#0 -355525595#0 355525556#0 355525595#0"/>
    <taz id="15_29" shape="1451.0,2851.0 1549.0,2851.0 1549.0,2949.0 1451.0,2949.0 1451.0,2851.0" color="91,0,255" edges="-355525564#0 -769390025 355525556#1 769390025"/>
    <taz id="15_30" shape="1451.0,2951.0 1549.0,2951.0 1549.0,3049.0 1451.0,3049.0 1451.0,2951.0" color="0,89,255" edges="-355525564#1 -355525602#2 -769390021 -769390024 355525564#1"/>
    <taz id="15_31" shape="1451.0,3051.0 1549.0,3051.0 1549.0,3149.0 1451.0,3149.0 1451.0,3051.0" color="255,0,59" edges="-355525573#0 -355525602#3 -769390022 355525573#0 355525602#3 769390021 769390022"/>
    <taz id="15_33" shape="1451.0,3251.0 1549.0,3251.0 1549.0,3349.0 1451.0,3349.0 1451.0,3251.0" color="0,82,255" edges="58609809#18"/>
    <taz id="15_36" shape="1451.0,3551.0 1549.0,3551.0 1549.0,3649.0 1451.0,3649.0 1451.0,3551.0" color="255,0,154" edges="-159842499#5 159842499#5"/>
    <taz id="15_37" shape="1451.0,3651.0 1549.0,3651.0 1549.0,3749.0 1451.0,3749.0 1451.0,3651.0" color="45,255,0" edges="-126178298 126178298"/>
    <taz id="15_38" shape="1451.0,3751.0 1549.0,3751.0 1549.0,3849.0 1451.0,3849.0 1451.0,3751.0" color="255,0,114" edges="-159842499#4 159842499#4"/>
    <taz id="15_39" shape="1451.0,3851.0 1549.0,3851.0 1549.0,3949.0 1451.0,3949.0 1451.0,3851.0" color="255,9,0" edges="-58609813#2 58609812#3 58609813#2"/>
    <taz id="15_40" shape="1451.0,3951.0 1549.0,3951.0 1549.0,4049.0 1451.0,4049.0 1451.0,3951.0" color="0,255,23" edges="-457861284 -58609812#3 457861284"/>
    <taz id="15_41" shape="1451.0,4051.0 1549.0,4051.0 1549.0,4149.0 1451.0,4149.0 1451.0,4051.0" color="146,255,0" edges="-58609820#3 58609820#3"/>
    <taz id="15_42" shape="1451.0,4151.0 1549.0,4151.0 1549.0,4249.0 1451.0,4249.0 1451.0,4151.0" color="255,105,0" edges="-126179371 126179371"/>
    <taz id="15_43" shape="1451.0,4251.0 1549.0,4251.0 1549.0,4349.0 1451.0,4349.0 1451.0,4251.0" color="255,0,199" edges="-126179377#2 126179377#2"/>
    <taz id="15_45" shape="1451.0,4451.0 1549.0,4451.0 1549.0,4549.0 1451.0,4549.0 1451.0,4451.0" color="0,255,179" edges="-126178330#1 -126179345#3 -126179377#0 -126179377#1 -768512867 126178330#1 126179345#3 126179377#0 126179377#1 768512866 768512867"/>
    <taz id="15_46" shape="1451.0,4551.0 1549.0,4551.0 1549.0,4649.0 1451.0,4649.0 1451.0,4551.0" color="255,187,0" edges="-126179345#1 -126179345#2 -768512865#0 126179345#1 126179345#2 768512865#0"/>
    <taz id="15_47" shape="1451.0,4651.0 1549.0,4651.0 1549.0,4749.0 1451.0,4749.0 1451.0,4651.0" color="220,255,0" edges="-126179345#0"/>
    <taz id="15_60" shape="1451.0,5951.0 1549.0,5951.0 1549.0,6049.0 1451.0,6049.0 1451.0,5951.0" color="255,62,0" edges="-126178440 -126179223"/>
    <taz id="15_69" shape="1451.0,6851.0 1549.0,6851.0 1549.0,6949.0 1451.0,6949.0 1451.0,6851.0" color="0,26,255" edges="-126178903#0 126178903#0"/>
    <taz id="15_82" shape="1451.0,8151.0 1549.0,8151.0 1549.0,8249.0 1451.0,8249.0 1451.0,8151.0" color="48,0,255" edges="-126178560 126178560"/>
    <taz id="15_121" shape="1451.0,12051.0 1549.0,12051.0 1549.0,12149.0 1451.0,12149.0 1451.0,12051.0" color="0,154,255" edges="-154122216 154122216"/>
    <taz id="15_127" shape="1451.0,12651.0 1549.0,12651.0 1549.0,12749.0 1451.0,12749.0 1451.0,12651.0" color="255,65,0" edges="-154125299 154136900"/>
    <taz id="16_26" shape="1551.0,2551.0 1649.0,2551.0 1649.0,2649.0 1551.0,2649.0 1551.0,2551.0" color="255,0,10" edges="-355525579#0 355525579#0"/>
    <taz id="16_27" shape="1551.0,2651.0 1649.0,2651.0 1649.0,2749.0 1551.0,2749.0 1551.0,2651.0" color="255,33,0" edges="-355525608 355525608"/>
    <taz id="16_28" shape="1551.0,2751.0 1649.0,2751.0 1649.0,2849.0 1551.0,2849.0 1551.0,2751.0" color="48,255,0" edges="-355525595#1 355525595#1 355525614"/>
    <taz id="16_29" shape="1551.0,2851.0 1649.0,2851.0 1649.0,2949.0 1551.0,2949.0 1551.0,2851.0" color="255,0,8" edges="-126185736 355525595#2"/>
    <taz id="16_30" shape="1551.0,2951.0 1649.0,2951.0 1649.0,3049.0 1551.0,3049.0 1551.0,2951.0" color="0,158,255" edges="-355525564#2 -769390020 -769390026 355525564#2 355525564#4 769390020 769390026"/>
    <taz id="16_31" shape="1551.0,3051.0 1649.0,3051.0 1649.0,3149.0 1551.0,3149.0 1551.0,3051.0" color="183,255,0" edges="-355525564#4 -355525564#5 -769390019 355525564#5 769390019"/>
    <taz id="16_32" shape="1551.0,3151.0 1649.0,3151.0 1649.0,3249.0 1551.0,3249.0 1551.0,3151.0" color="152,0,255" edges="-355525564#6 355525564#6"/>
    <taz id="16_33" shape="1551.0,3251.0 1649.0,3251.0 1649.0,3349.0 1551.0,3349.0 1551.0,3251.0" color="0,255,173" edges="-58609809#16 -59934513 58609809#16 59934512 769390027#0"/>
    <taz id="16_34" shape="1551.0,3351.0 1649.0,3351.0 1649.0,3449.0 1551.0,3449.0 1551.0,3351.0" color="0,62,255" edges="-58609809#17 58609809#17"/>
    <taz id="16_35" shape="1551.0,3451.0 1649.0,3451.0 1649.0,3549.0 1551.0,3549.0 1551.0,3451.0" color="0,102,255" edges="-58609824#3 58609824#3"/>
    <taz id="16_36" shape="1551.0,3551.0 1649.0,3551.0 1649.0,3649.0 1551.0,3649.0 1551.0,3551.0" color="0,255,185" edges="-126178337 126179036"/>
    <taz id="16_37" shape="1551.0,3651.0 1649.0,3651.0 1649.0,3749.0 1551.0,3749.0 1551.0,3651.0" color="255,121,0" edges="-58609824#2 58609824#2"/>
    <taz id="16_38" shape="1551.0,3751.0 1649.0,3751.0 1649.0,3849.0 1551.0,3849.0 1551.0,3751.0" color="255,0,214" edges="-126178318#0 -126178318#1 -58609813#3 -58609824#1 126178318#0 126178318#1 58609813#3 58609824#1"/>
    <taz id="16_39" shape="1551.0,3851.0 1649.0,3851.0 1649.0,3949.0 1551.0,3949.0 1551.0,3851.0" color="255,0,221" edges="-58609812#2 -58609819 -58609820#6 379459612#1 58609812#2 58609820#6 58609821"/>
    <taz id="16_40" shape="1551.0,3951.0 1649.0,3951.0 1649.0,4049.0 1551.0,4049.0 1551.0,3951.0" color="0,255,218" edges="-58609820#5"/>
    <taz id="16_41" shape="1551.0,4051.0 1649.0,4051.0 1649.0,4149.0 1551.0,4149.0 1551.0,4051.0" color="0,119,255" edges="-58609820#4 58609820#4 58609820#5"/>
    <taz id="16_45" shape="1551.0,4451.0 1649.0,4451.0 1649.0,4549.0 1551.0,4549.0 1551.0,4451.0" color="255,0,103" edges="-768512865#1 -768512866 -768512868#0 768512865#1 768512868#0"/>
    <taz id="16_46" shape="1551.0,4551.0 1649.0,4551.0 1649.0,4649.0 1551.0,4649.0 1551.0,4551.0" color="0,40,255" edges="-768512863 -768512864 768512863 768512864"/>
    <taz id="16_47" shape="1551.0,4651.0 1649.0,4651.0 1649.0,4749.0 1551.0,4749.0 1551.0,4651.0" color="0,255,57" edges="-126179333#0 -126179333#1 -126179333#2 -768512862#0 -768512862#1 -768512862#2 126179333#0 126179333#1 126179333#2 126179333#3 126179345#0 768512862#0 768512862#1 768512862#2 768512862#3"/>
    <taz id="16_49" shape="1551.0,4851.0 1649.0,4851.0 1649.0,4949.0 1551.0,4949.0 1551.0,4851.0" color="255,0,47" edges="-126178889 126178889"/>
    <taz id="16_52" shape="1551.0,5151.0 1649.0,5151.0 1649.0,5249.0 1551.0,5249.0 1551.0,5151.0" color="255,0,101" edges="-126178689 126178689"/>
    <taz id="16_66" shape="1551.0,6551.0 1649.0,6551.0 1649.0,6649.0 1551.0,6649.0 1551.0,6551.0" color="0,255,160" edges="126179130"/>
    <taz id="16_67" shape="1551.0,6651.0 1649.0,6651.0 1649.0,6749.0 1551.0,6749.0 1551.0,6651.0" color="72,255,0" edges="-126179130"/>
    <taz id="16_78" shape="1551.0,7751.0 1649.0,7751.0 1649.0,7849.0 1551.0,7849.0 1551.0,7751.0" color="0,255,125" edges="-126179318 126179318"/>
    <taz id="16_90" shape="1551.0,8951.0 1649.0,8951.0 1649.0,9049.0 1551.0,9049.0 1551.0,8951.0" color="189,0,255" edges="-126178683#0 126178683#0"/>
    <taz id="16_97" shape="1551.0,9651.0 1649.0,9651.0 1649.0,9749.0 1551.0,9749.0 1551.0,9651.0" color="0,70,255" edges="-126179150 126179269"/>
    <taz id="16_120" shape="1551.0,11951.0 1649.0,11951.0 1649.0,12049.0 1551.0,12049.0 1551.0,11951.0" color="0,212,255" edges="-154123024 154123024"/>
    <taz id="17_27" shape="1651.0,2651.0 1749.0,2651.0 1749.0,2749.0 1651.0,2749.0 1651.0,2651.0" color="88,255,0" edges="-355525614"/>
    <taz id="17_29" shape="1651.0,2851.0 1749.0,2851.0 1749.0,2949.0 1651.0,2949.0 1651.0,2851.0" color="0,108,255" edges="-355525577#0 -355525577#1 355525577#0 355525577#1"/>
    <taz id="17_31" shape="1651.0,3051.0 1749.0,3051.0 1749.0,3149.0 1651.0,3149.0 1651.0,3051.0" color="121,255,0" edges="-355525566 -769390028 355525566 769390028"/>
    <taz id="17_32" shape="1651.0,3151.0 1749.0,3151.0 1749.0,3249.0 1651.0,3249.0 1651.0,3151.0" color="0,255,235" edges="-769390027#0 -769390027#1 769390027#1"/>
    <taz id="17_33" shape="1651.0,3251.0 1749.0,3251.0 1749.0,3349.0 1651.0,3349.0 1651.0,3251.0" color="156,0,255" edges="-58609809#15"/>
    <taz id="17_35" shape="1651.0,3451.0 1749.0,3451.0 1749.0,3549.0 1651.0,3549.0 1651.0,3451.0" color="255,0,12" edges="-126178605 126178605"/>
    <taz id="17_39" shape="1651.0,3851.0 1749.0,3851.0 1749.0,3949.0 1651.0,3949.0 1651.0,3851.0" color="0,255,118" edges="-58609822#0 -58609824#0 58609822#0 58609822#1"/>
    <taz id="17_40" shape="1651.0,3951.0 1749.0,3951.0 1749.0,4049.0 1651.0,4049.0 1651.0,3951.0" color="0,126,255" edges="-126179237"/>
    <taz id="17_41" shape="1651.0,4051.0 1749.0,4051.0 1749.0,4149.0 1651.0,4149.0 1651.0,4051.0" color="255,0,217" edges="-126179385 126179237 126179385"/>
    <taz id="17_43" shape="1651.0,4251.0 1749.0,4251.0 1749.0,4349.0 1651.0,4349.0 1651.0,4251.0" color="76,0,255" edges="-126178619 -126178919#4 126178619 126178919#4"/>
    <taz id="17_45" shape="1651.0,4451.0 1749.0,4451.0 1749.0,4549.0 1651.0,4549.0 1651.0,4451.0" color="255,0,4" edges="-126178919#3 -768512868#1 -768512869 126178919#3 768512868#1 768512869"/>
    <taz id="17_46" shape="1651.0,4551.0 1749.0,4551.0 1749.0,4649.0 1651.0,4649.0 1651.0,4551.0" color="255,0,121" edges="-126178919#2 -768512870 -768512871 -768512872 126178919#2 768512870 768512871 768512872"/>
    <taz id="17_47" shape="1651.0,4651.0 1749.0,4651.0 1749.0,4749.0 1651.0,4749.0 1651.0,4651.0" color="0,54,255" edges="-126178919#0 -126178919#1 -126179333#3 -126179333#4 -768512862#3 -768512862#4 126178919#0 126178919#1 126179333#4 768512862#4"/>
    <taz id="17_51" shape="1651.0,5051.0 1749.0,5051.0 1749.0,5149.0 1651.0,5149.0 1651.0,5051.0" color="0,46,255" edges="-126179138 126179138"/>
    <taz id="17_67" shape="1651.0,6651.0 1749.0,6651.0 1749.0,6749.0 1651.0,6749.0 1651.0,6651.0" color="236,255,0" edges="126179086"/>
    <taz id="17_71" shape="1651.0,7051.0 1749.0,7051.0 1749.0,7149.0 1651.0,7149.0 1651.0,7051.0" color="121,255,0" edges="-126178989 126178989"/>
    <taz id="18_28" shape="1751.0,2751.0 1849.0,2751.0 1849.0,2849.0 1751.0,2849.0 1751.0,2751.0" color="0,255,98" edges="-355525576#0 355525579#1"/>
    <taz id="18_30" shape="1751.0,2951.0 1849.0,2951.0 1849.0,3049.0 1751.0,3049.0 1751.0,2951.0" color="0,228,255" edges="-355525577#2 -355525577#3 355525576#2 355525577#2 355525577#3"/>
    <taz id="18_31" shape="1751.0,3051.0 1849.0,3051.0 1849.0,3149.0 1751.0,3149.0 1751.0,3051.0" color="91,0,255" edges="-355525576#2 -355525576#3 -769390029 -769390030#0 355525576#3 769390029 769390030#0"/>
    <taz id="18_32" shape="1751.0,3151.0 1849.0,3151.0 1849.0,3249.0 1751.0,3249.0 1751.0,3151.0" color="255,0,26" edges="-355525576#4 -769390027#2 126178729 355525576#4 769390027#2"/>
    <taz id="18_33" shape="1751.0,3251.0 1849.0,3251.0 1849.0,3349.0 1751.0,3349.0 1751.0,3251.0" color="255,0,188" edges="58609809#15"/>
    <taz id="18_34" shape="1751.0,3351.0 1849.0,3351.0 1849.0,3449.0 1751.0,3449.0 1751.0,3351.0" color="255,61,0" edges="-126178400 126178400"/>
    <taz id="18_35" shape="1751.0,3451.0 1849.0,3451.0 1849.0,3549.0 1751.0,3549.0 1751.0,3451.0" color="58,255,0" edges="-126179175"/>
    <taz id="18_36" shape="1751.0,3551.0 1849.0,3551.0 1849.0,3649.0 1751.0,3649.0 1751.0,3551.0" color="255,219,0" edges="126179175"/>
    <taz id="18_37" shape="1751.0,3651.0 1849.0,3651.0 1849.0,3749.0 1751.0,3749.0 1751.0,3651.0" color="0,23,255" edges="-126178455#0 126178455#0"/>
    <taz id="18_38" shape="1751.0,3751.0 1849.0,3751.0 1849.0,3849.0 1751.0,3849.0 1751.0,3751.0" color="0,255,230" edges="-59934510 59934510"/>
    <taz id="18_39" shape="1751.0,3851.0 1849.0,3851.0 1849.0,3949.0 1751.0,3949.0 1751.0,3851.0" color="0,255,192" edges="-58609812#1 379459613#0-AddedOffRampEdge 58609812#1"/>
    <taz id="18_44" shape="1751.0,4351.0 1849.0,4351.0 1849.0,4449.0 1751.0,4449.0 1751.0,4351.0" color="0,161,255" edges="-126179248 126179248"/>
    <taz id="18_58" shape="1751.0,5751.0 1849.0,5751.0 1849.0,5849.0 1751.0,5849.0 1751.0,5751.0" color="65,255,0" edges="126178849 126179270"/>
    <taz id="18_67" shape="1751.0,6651.0 1849.0,6651.0 1849.0,6749.0 1751.0,6749.0 1751.0,6651.0" color="0,154,255" edges="-126179086"/>
    <taz id="18_69" shape="1751.0,6851.0 1849.0,6851.0 1849.0,6949.0 1751.0,6949.0 1751.0,6851.0" color="0,178,255" edges="-126178520#0 126178520#0"/>
    <taz id="18_71" shape="1751.0,7051.0 1849.0,7051.0 1849.0,7149.0 1751.0,7149.0 1751.0,7051.0" color="255,0,227" edges="-126178903#1"/>
    <taz id="18_72" shape="1751.0,7151.0 1849.0,7151.0 1849.0,7249.0 1751.0,7249.0 1751.0,7151.0" color="255,107,0" edges="126178903#1"/>
    <taz id="18_73" shape="1751.0,7251.0 1849.0,7251.0 1849.0,7349.0 1751.0,7349.0 1751.0,7251.0" color="255,0,34" edges="126179336"/>
    <taz id="18_74" shape="1751.0,7351.0 1849.0,7351.0 1849.0,7449.0 1751.0,7449.0 1751.0,7351.0" color="255,0,76" edges="-126179336"/>
    <taz id="18_76" shape="1751.0,7551.0 1849.0,7551.0 1849.0,7649.0 1751.0,7649.0 1751.0,7551.0" color="0,255,117" edges="-126178882#0 126178882#0"/>
    <taz id="19_28" shape="1851.0,2751.0 1949.0,2751.0 1949.0,2849.0 1851.0,2849.0 1851.0,2751.0" color="255,24,0" edges="-769371096 769371095#2"/>
    <taz id="19_29" shape="1851.0,2851.0 1949.0,2851.0 1949.0,2949.0 1851.0,2949.0 1851.0,2851.0" color="255,0,173" edges="-769390039 769390039"/>
    <taz id="19_30" shape="1851.0,2951.0 1949.0,2951.0 1949.0,3049.0 1851.0,3049.0 1851.0,2951.0" color="235,255,0" edges="-769390030#3 769390030#3"/>
    <taz id="19_31" shape="1851.0,3051.0 1949.0,3051.0 1949.0,3149.0 1851.0,3149.0 1851.0,3051.0" color="255,10,0" edges="-769390030#1 -769390030#2 -769390031#0 -769390031#1 -769390033 -769390034#0 -769390035#0 -769390035#1 -769390037 769390030#1 769390030#2 769390031#0 769390031#1 769390033 769390034#0 769390035#1 769390036 769390037"/>
    <taz id="19_32" shape="1851.0,3151.0 1949.0,3151.0 1949.0,3249.0 1851.0,3249.0 1851.0,3151.0" color="255,14,0" edges="-126179010 -769390032#0 -769390032#1 126178769 769390032#0 769390032#1 769390032#2"/>
    <taz id="19_33" shape="1851.0,3251.0 1949.0,3251.0 1949.0,3349.0 1851.0,3349.0 1851.0,3251.0" color="0,233,255" edges="-126178526 126178526 126179010"/>
    <taz id="19_34" shape="1851.0,3351.0 1949.0,3351.0 1949.0,3449.0 1851.0,3449.0 1851.0,3351.0" color="255,0,101" edges="-126178341 126178341"/>
    <taz id="19_36" shape="1851.0,3551.0 1949.0,3551.0 1949.0,3649.0 1851.0,3649.0 1851.0,3551.0" color="255,0,221" edges="126178851"/>
    <taz id="19_38" shape="1851.0,3751.0 1949.0,3751.0 1949.0,3849.0 1851.0,3849.0 1851.0,3751.0" color="255,0,210" edges="-501571564 -501571565#1 59934514#1"/>
    <taz id="19_39" shape="1851.0,3851.0 1949.0,3851.0 1949.0,3949.0 1851.0,3949.0 1851.0,3851.0" color="123,255,0" edges="-58609812#0 58609812#0"/>
    <taz id="19_41" shape="1851.0,4051.0 1949.0,4051.0 1949.0,4149.0 1851.0,4149.0 1851.0,4051.0" color="0,3,255" edges="-768512876 768512876"/>
    <taz id="19_43" shape="1851.0,4251.0 1949.0,4251.0 1949.0,4349.0 1851.0,4349.0 1851.0,4251.0" color="165,255,0" edges="-126178302 126178302"/>
    <taz id="19_44" shape="1851.0,4351.0 1949.0,4351.0 1949.0,4449.0 1851.0,4449.0 1851.0,4351.0" color="0,255,140" edges="-126178342 -126179297 126178342 126179297"/>
    <taz id="19_46" shape="1851.0,4551.0 1949.0,4551.0 1949.0,4649.0 1851.0,4649.0 1851.0,4551.0" color="0,255,179" edges="-126178311 -126178660 126178311 126178660"/>
    <taz id="19_50" shape="1851.0,4951.0 1949.0,4951.0 1949.0,5049.0 1851.0,5049.0 1851.0,4951.0" color="0,255,169" edges="-126178941 126178941"/>
    <taz id="19_73" shape="1851.0,7251.0 1949.0,7251.0 1949.0,7349.0 1851.0,7349.0 1851.0,7251.0" color="0,18,255" edges="-126178882#1 126178882#1"/>
    <taz id="19_75" shape="1851.0,7451.0 1949.0,7451.0 1949.0,7549.0 1851.0,7549.0 1851.0,7451.0" color="255,0,128" edges="-126178460 126178460"/>
    <taz id="19_77" shape="1851.0,7651.0 1949.0,7651.0 1949.0,7749.0 1851.0,7749.0 1851.0,7651.0" color="0,88,255" edges="-126178578#1 126178578#1"/>
    <taz id="20_27" shape="1951.0,2651.0 2049.0,2651.0 2049.0,2749.0 1951.0,2749.0 1951.0,2651.0" color="0,24,255" edges="-126185805#2 126185805#2"/>
    <taz id="20_29" shape="1951.0,2851.0 2049.0,2851.0 2049.0,2949.0 1951.0,2949.0 1951.0,2851.0" color="170,0,255" edges="-769371095#1 769371095#1"/>
    <taz id="20_30" shape="1951.0,2951.0 2049.0,2951.0 2049.0,3049.0 1951.0,3049.0 1951.0,2951.0" color="0,23,255" edges="-769390038 769390038"/>
    <taz id="20_31" shape="1951.0,3051.0 2049.0,3051.0 2049.0,3149.0 1951.0,3149.0 1951.0,3051.0" color="255,136,0" edges="-769390034#1 -769390036 769390034#1 769390035#0"/>
    <taz id="20_32" shape="1951.0,3151.0 2049.0,3151.0 2049.0,3249.0 1951.0,3249.0 1951.0,3151.0" color="36,255,0" edges="-58609809#14 -769390032#2 58609809#13 58609809#14"/>
    <taz id="20_33" shape="1951.0,3251.0 2049.0,3251.0 2049.0,3349.0 1951.0,3349.0 1951.0,3251.0" color="255,0,140" edges="-126178344 -457860412#0 -58609809#13 126178344 457860412#0 457860412#1"/>
    <taz id="20_34" shape="1951.0,3351.0 2049.0,3351.0 2049.0,3449.0 1951.0,3449.0 1951.0,3351.0" color="255,152,0" edges="-126179319 -457860412#1"/>
    <taz id="20_35" shape="1951.0,3451.0 2049.0,3451.0 2049.0,3549.0 1951.0,3549.0 1951.0,3451.0" color="255,0,114" edges="126179319"/>
    <taz id="20_36" shape="1951.0,3551.0 2049.0,3551.0 2049.0,3649.0 1951.0,3649.0 1951.0,3551.0" color="0,117,255" edges="-126178851 -126178982#1 126178982#1"/>
    <taz id="20_37" shape="1951.0,3651.0 2049.0,3651.0 2049.0,3749.0 1951.0,3749.0 1951.0,3651.0" color="0,255,196" edges="-126178982#0"/>
    <taz id="20_38" shape="1951.0,3751.0 2049.0,3751.0 2049.0,3849.0 1951.0,3849.0 1951.0,3751.0" color="37,255,0" edges="-501571565#0 126178982#0 501571565#1"/>
    <taz id="20_39" shape="1951.0,3851.0 2049.0,3851.0 2049.0,3949.0 1951.0,3949.0 1951.0,3851.0" color="0,52,255" edges="-246730565#0 -424811997 -59934514#0 159181185 246730565#0"/>
    <taz id="20_40" shape="1951.0,3951.0 2049.0,3951.0 2049.0,4049.0 1951.0,4049.0 1951.0,3951.0" color="255,149,0" edges="-126179283#1 126179283#1 424811997 59934514#0"/>
    <taz id="20_42" shape="1951.0,4151.0 2049.0,4151.0 2049.0,4249.0 1951.0,4249.0 1951.0,4151.0" color="0,255,244" edges="-126179283#0 126179283#0"/>
    <taz id="20_43" shape="1951.0,4251.0 2049.0,4251.0 2049.0,4349.0 1951.0,4349.0 1951.0,4251.0" color="0,255,18" edges="-126178739 126178739"/>
    <taz id="20_45" shape="1951.0,4451.0 2049.0,4451.0 2049.0,4549.0 1951.0,4549.0 1951.0,4451.0" color="255,0,233" edges="-126179346 126179346"/>
    <taz id="20_69" shape="1951.0,6851.0 2049.0,6851.0 2049.0,6949.0 1951.0,6949.0 1951.0,6851.0" color="0,255,186" edges="-126178520#1 126178520#1"/>
    <taz id="20_71" shape="1951.0,7051.0 2049.0,7051.0 2049.0,7149.0 1951.0,7149.0 1951.0,7051.0" color="0,255,103" edges="126179213"/>
    <taz id="20_72" shape="1951.0,7151.0 2049.0,7151.0 2049.0,7249.0 1951.0,7249.0 1951.0,7151.0" color="88,0,255" edges="-126179213"/>
    <taz id="20_75" shape="1951.0,7451.0 2049.0,7451.0 2049.0,7549.0 1951.0,7549.0 1951.0,7451.0" color="255,0,41" edges="-126178578#0 126178578#0"/>
    <taz id="20_76" shape="1951.0,7551.0 2049.0,7551.0 2049.0,7649.0 1951.0,7649.0 1951.0,7551.0" color="0,187,255" edges="-126179339 126179339"/>
    <taz id="21_27" shape="2051.0,2651.0 2149.0,2651.0 2149.0,2749.0 2051.0,2749.0 2051.0,2651.0" color="149,0,255" edges="-355525555#1 355525555#1"/>
    <taz id="21_28" shape="2051.0,2751.0 2149.0,2751.0 2149.0,2849.0 2051.0,2849.0 2051.0,2751.0" color="0,255,59" edges="-355525555#0 -769371069 355525555#0 769371069"/>
    <taz id="21_29" shape="2051.0,2851.0 2149.0,2851.0 2149.0,2949.0 2051.0,2949.0 2051.0,2851.0" color="255,0,234" edges="-769371071#0 769371071#0"/>
    <taz id="21_30" shape="2051.0,2951.0 2149.0,2951.0 2149.0,3049.0 2051.0,3049.0 2051.0,2951.0" color="255,0,225" edges="-126185805#1 -769371094#0 -769371094#1 -769371095#0 126185805#1 769371094#0 769371094#1 769371095#0"/>