<?xml version="1.0" encoding="UTF-8"?>

<!-- generated on 2024-03-20 02:10:43 by Eclipse SUMO duarouter Version 1.19.0
<configuration xmlns:xsi="http://www.w3.org/2001/XMLSchema-instance" xsi:noNamespaceSchemaLocation="http://sumo.dlr.de/xsd/duarouterConfiguration.xsd">

    <input>
        <net-file value="osm.net.xml"/>
        <additional-files value="bus.stop.add.xml,grid.taz.add.xml"/>
        <route-files value="od.taz.flow.xml"/>
    </input>

    <output>
        <output-file value="person.rou.xml"/>
    </output>

</configuration>
-->

<routes xmlns:xsi="http://www.w3.org/2001/XMLSchema-instance" xsi:noNamespaceSchemaLocation="http://sumo.dlr.de/xsd/routes_file.xsd">
    <person id="pf_0.0" depart="0.00" color="red">
        <walk edges="714995058#4 618466860#10 618466860#9 618466860#8 618466860#7 618466860#6 -618466855 344411964#4 -344411964#3 344411964#2 344411964#1 -972770700#0 618466892#1 618466892#0 344411939#0"/>
    </person>
    <person id="pf_0.1" depart="10.00" color="red">
        <walk edges="714995058#4 618466860#10 618466860#9 618466860#8 618466860#7 618466860#6 -618466855 344411964#4 -344411964#3 344411964#2 344411964#1 -972770700#0 618466892#1 618466892#0 344411939#0"/>
    </person>
    <person id="pf_0.2" depart="20.00" color="red">
        <walk edges="714995058#4 618466860#10 618466860#9 618466860#8 618466860#7 618466860#6 -618466855 344411964#4 -344411964#3 344411964#2 344411964#1 -972770700#0 618466892#1 618466892#0 344411939#0"/>
    </person>
    <person id="pf_0.3" depart="30.00" color="red">
        <walk edges="714995058#4 618466860#10 618466860#9 618466860#8 618466860#7 618466860#6 -618466855 344411964#4 -344411964#3 344411964#2 344411964#1 -972770700#0 618466892#1 618466892#0 344411939#0"/>
    </person>
    <person id="pf_0.4" depart="40.00" color="red">
        <walk edges="714995058#4 618466860#10 618466860#9 618466860#8 618466860#7 618466860#6 -618466855 344411964#4 -344411964#3 344411964#2 344411964#1 -972770700#0 618466892#1 618466892#0 344411939#0"/>
    </person>
    <person id="pf_0.5" depart="50.00" color="red">
        <walk edges="714995058#4 618466860#10 618466860#9 618466860#8 618466860#7 618466860#6 -618466855 344411964#4 -344411964#3 344411964#2 344411964#1 -972770700#0 618466892#1 618466892#0 344411939#0"/>
    </person>
    <person id="pf_0.6" depart="60.00" color="red">
        <walk edges="714995058#4 618466860#10 618466860#9 618466860#8 618466860#7 618466860#6 -618466855 344411964#4 -344411964#3 344411964#2 344411964#1 -972770700#0 618466892#1 618466892#0 344411939#0"/>
    </person>
    <person id="pf_0.7" depart="70.00" color="red">
        <walk edges="714995058#4 618466860#10 618466860#9 618466860#8 618466860#7 618466860#6 -618466855 344411964#4 -344411964#3 344411964#2 344411964#1 -972770700#0 618466892#1 618466892#0 344411939#0"/>
    </person>
    <person id="pf_0.8" depart="80.00" color="red">
        <walk edges="714995058#4 618466860#10 618466860#9 618466860#8 618466860#7 618466860#6 -618466855 344411964#4 -344411964#3 344411964#2 344411964#1 -972770700#0 618466892#1 618466892#0 344411939#0"/>
    </person>
    <person id="pf_0.9" depart="90.00" color="red">
        <walk edges="714995058#4 618466860#10 618466860#9 618466860#8 618466860#7 618466860#6 -618466855 344411964#4 -344411964#3 344411964#2 344411964#1 -972770700#0 618466892#1 618466892#0 344411939#0"/>
    </person>
    <person id="pf_0.10" depart="100.00" color="red">
        <walk edges="714995058#4 618466860#10 618466860#9 618466860#8 618466860#7 618466860#6 -618466855 344411964#4 -344411964#3 344411964#2 344411964#1 -972770700#0 618466892#1 618466892#0 344411939#0"/>
    </person>
    <person id="pf_0.11" depart="110.00" color="red">
        <walk edges="714995058#4 618466860#10 618466860#9 618466860#8 618466860#7 618466860#6 -618466855 344411964#4 -344411964#3 344411964#2 344411964#1 -972770700#0 618466892#1 618466892#0 344411939#0"/>
    </person>
    <person id="pf_0.12" depart="120.00" color="red">
        <walk edges="714995058#4 618466860#10 618466860#9 618466860#8 618466860#7 618466860#6 -618466855 344411964#4 -344411964#3 344411964#2 344411964#1 -972770700#0 618466892#1 618466892#0 344411939#0"/>
    </person>
    <person id="pf_0.13" depart="130.00" color="red">
        <walk edges="714995058#4 618466860#10 618466860#9 618466860#8 618466860#7 618466860#6 -618466855 344411964#4 -344411964#3 344411964#2 344411964#1 -972770700#0 618466892#1 618466892#0 344411939#0"/>
    </person>
    <person id="pf_0.14" depart="140.00" color="red">
        <walk edges="714995058#4 618466860#10 618466860#9 618466860#8 618466860#7 618466860#6 -618466855 344411964#4 -344411964#3 344411964#2 344411964#1 -972770700#0 618466892#1 618466892#0 344411939#0"/>
    </person>
    <person id="pf_0.15" depart="150.00" color="red">
        <walk edges="714995058#4 618466860#10 618466860#9 618466860#8 618466860#7 618466860#6 -618466855 344411964#4 -344411964#3 344411964#2 344411964#1 -972770700#0 618466892#1 618466892#0 344411939#0"/>
    </person>
    <person id="pf_0.16" depart="160.00" color="red">
        <walk edges="714995058#4 618466860#10 618466860#9 618466860#8 618466860#7 618466860#6 -618466855 344411964#4 -344411964#3 344411964#2 344411964#1 -972770700#0 618466892#1 618466892#0 344411939#0"/>
    </person>
    <person id="pf_0.17" depart="170.00" color="red">
        <walk edges="714995058#4 618466860#10 618466860#9 618466860#8 618466860#7 618466860#6 -618466855 344411964#4 -344411964#3 344411964#2 344411964#1 -972770700#0 618466892#1 618466892#0 344411939#0"/>
    </person>
    <person id="pf_0.18" depart="180.00" color="red">
        <walk edges="714995058#4 618466860#10 618466860#9 618466860#8 618466860#7 618466860#6 -618466855 344411964#4 -344411964#3 344411964#2 344411964#1 -972770700#0 618466892#1 618466892#0 344411939#0"/>
    </person>
    <person id="pf_0.19" depart="190.00" color="red">
        <walk edges="714995058#4 618466860#10 618466860#9 618466860#8 618466860#7 618466860#6 -618466855 344411964#4 -344411964#3 344411964#2 344411964#1 -972770700#0 618466892#1 618466892#0 344411939#0"/>
    </person>
    <person id="pf_0.20" depart="200.00" color="red">
        <walk edges="714995058#4 618466860#10 618466860#9 618466860#8 618466860#7 618466860#6 -618466855 344411964#4 -344411964#3 344411964#2 344411964#1 -972770700#0 618466892#1 618466892#0 344411939#0"/>
    </person>
    <person id="pf_0.21" depart="210.00" color="red">
        <walk edges="714995058#4 618466860#10 618466860#9 618466860#8 618466860#7 618466860#6 -618466855 344411964#4 -344411964#3 344411964#2 344411964#1 -972770700#0 618466892#1 618466892#0 344411939#0"/>
    </person>
    <person id="pf_0.22" depart="220.00" color="red">
        <walk edges="714995058#4 618466860#10 618466860#9 618466860#8 618466860#7 618466860#6 -618466855 344411964#4 -344411964#3 344411964#2 344411964#1 -972770700#0 618466892#1 618466892#0 344411939#0"/>
    </person>
    <person id="pf_0.23" depart="230.00" color="red">
        <walk edges="714995058#4 618466860#10 618466860#9 618466860#8 618466860#7 618466860#6 -618466855 344411964#4 -344411964#3 344411964#2 344411964#1 -972770700#0 618466892#1 618466892#0 344411939#0"/>
    </person>
    <person id="pf_0.24" depart="240.00" color="red">
        <walk edges="714995058#4 618466860#10 618466860#9 618466860#8 618466860#7 618466860#6 -618466855 344411964#4 -344411964#3 344411964#2 344411964#1 -972770700#0 618466892#1 618466892#0 344411939#0"/>
    </person>
    <person id="pf_0.25" depart="250.00" color="red">
        <walk edges="714995058#4 618466860#10 618466860#9 618466860#8 618466860#7 618466860#6 -618466855 344411964#4 -344411964#3 344411964#2 344411964#1 -972770700#0 618466892#1 618466892#0 344411939#0"/>
    </person>
    <person id="pf_0.26" depart="260.00" color="red">
        <walk edges="714995058#4 618466860#10 618466860#9 618466860#8 618466860#7 618466860#6 -618466855 344411964#4 -344411964#3 344411964#2 344411964#1 -972770700#0 618466892#1 618466892#0 344411939#0"/>
    </person>
    <person id="pf_0.27" depart="270.00" color="red">
        <walk edges="714995058#4 618466860#10 618466860#9 618466860#8 618466860#7 618466860#6 -618466855 344411964#4 -344411964#3 344411964#2 344411964#1 -972770700#0 618466892#1 618466892#0 344411939#0"/>
    </person>
    <person id="pf_0.28" depart="280.00" color="red">
        <walk edges="714995058#4 618466860#10 618466860#9 618466860#8 618466860#7 618466860#6 -618466855 344411964#4 -344411964#3 344411964#2 344411964#1 -972770700#0 618466892#1 618466892#0 344411939#0"/>
    </person>
    <person id="pf_0.29" depart="290.00" color="red">
        <walk edges="714995058#4 618466860#10 618466860#9 618466860#8 618466860#7 618466860#6 -618466855 344411964#4 -344411964#3 344411964#2 344411964#1 -972770700#0 618466892#1 618466892#0 344411939#0"/>
    </person>
    <person id="pf_0.30" depart="300.00" color="red">
        <walk edges="714995058#4 618466860#10 618466860#9 618466860#8 618466860#7 618466860#6 -618466855 344411964#4 -344411964#3 344411964#2 344411964#1 -972770700#0 618466892#1 618466892#0 344411939#0"/>
    </person>
    <person id="pf_0.31" depart="310.00" color="red">
        <walk edges="714995058#4 618466860#10 618466860#9 618466860#8 618466860#7 618466860#6 -618466855 344411964#4 -344411964#3 344411964#2 344411964#1 -972770700#0 618466892#1 618466892#0 344411939#0"/>
    </person>
    <person id="pf_0.32" depart="320.00" color="red">
        <walk edges="714995058#4 618466860#10 618466860#9 618466860#8 618466860#7 618466860#6 -618466855 344411964#4 -344411964#3 344411964#2 344411964#1 -972770700#0 618466892#1 618466892#0 344411939#0"/>
    </person>
    <person id="pf_0.33" depart="330.00" color="red">
        <walk edges="714995058#4 618466860#10 618466860#9 618466860#8 618466860#7 618466860#6 -618466855 344411964#4 -344411964#3 344411964#2 344411964#1 -972770700#0 618466892#1 618466892#0 344411939#0"/>
    </person>
    <person id="pf_0.34" depart="340.00" color="red">
        <walk edges="714995058#4 618466860#10 618466860#9 618466860#8 618466860#7 618466860#6 -618466855 344411964#4 -344411964#3 344411964#2 344411964#1 -972770700#0 618466892#1 618466892#0 344411939#0"/>
    </person>
    <person id="pf_0.35" depart="350.00" color="red">
        <walk edges="714995058#4 618466860#10 618466860#9 618466860#8 618466860#7 618466860#6 -618466855 344411964#4 -344411964#3 344411964#2 344411964#1 -972770700#0 618466892#1 618466892#0 344411939#0"/>
    </person>
    <person id="pf_0.36" depart="360.00" color="red">
        <walk edges="714995058#4 618466860#10 618466860#9 618466860#8 618466860#7 618466860#6 -618466855 344411964#4 -344411964#3 344411964#2 344411964#1 -972770700#0 618466892#1 618466892#0 344411939#0"/>
    </person>
    <person id="pf_0.37" depart="370.00" color="red">
        <walk edges="714995058#4 618466860#10 618466860#9 618466860#8 618466860#7 618466860#6 -618466855 344411964#4 -344411964#3 344411964#2 344411964#1 -972770700#0 618466892#1 618466892#0 344411939#0"/>
    </person>
    <person id="pf_0.38" depart="380.00" color="red">
        <walk edges="714995058#4 618466860#10 618466860#9 618466860#8 618466860#7 618466860#6 -618466855 344411964#4 -344411964#3 344411964#2 344411964#1 -972770700#0 618466892#1 618466892#0 344411939#0"/>
    </person>
    <person id="pf_0.39" depart="390.00" color="red">
        <walk edges="714995058#4 618466860#10 618466860#9 618466860#8 618466860#7 618466860#6 -618466855 344411964#4 -344411964#3 344411964#2 344411964#1 -972770700#0 618466892#1 618466892#0 344411939#0"/>
    </person>
    <person id="pf_0.40" depart="400.00" color="red">
        <walk edges="714995058#4 618466860#10 618466860#9 618466860#8 618466860#7 618466860#6 -618466855 344411964#4 -344411964#3 344411964#2 344411964#1 -972770700#0 618466892#1 618466892#0 344411939#0"/>
    </person>
    <person id="pf_0.41" depart="410.00" color="red">
        <walk edges="714995058#4 618466860#10 618466860#9 618466860#8 618466860#7 618466860#6 -618466855 344411964#4 -344411964#3 344411964#2 344411964#1 -972770700#0 618466892#1 618466892#0 344411939#0"/>
    </person>
    <person id="pf_0.42" depart="420.00" color="red">
        <walk edges="714995058#4 618466860#10 618466860#9 618466860#8 618466860#7 618466860#6 -618466855 344411964#4 -344411964#3 344411964#2 344411964#1 -972770700#0 618466892#1 618466892#0 344411939#0"/>
    </person>
    <person id="pf_0.43" depart="430.00" color="red">
        <walk edges="714995058#4 618466860#10 618466860#9 618466860#8 618466860#7 618466860#6 -618466855 344411964#4 -344411964#3 344411964#2 344411964#1 -972770700#0 618466892#1 618466892#0 344411939#0"/>
    </person>
    <person id="pf_0.44" depart="440.00" color="red">
        <walk edges="714995058#4 618466860#10 618466860#9 618466860#8 618466860#7 618466860#6 -618466855 344411964#4 -344411964#3 344411964#2 344411964#1 -972770700#0 618466892#1 618466892#0 344411939#0"/>
    </person>
    <person id="pf_0.45" depart="450.00" color="red">
        <walk edges="714995058#4 618466860#10 618466860#9 618466860#8 618466860#7 618466860#6 -618466855 344411964#4 -344411964#3 344411964#2 344411964#1 -972770700#0 618466892#1 618466892#0 344411939#0"/>
    </person>
    <person id="pf_0.46" depart="460.00" color="red">
        <walk edges="714995058#4 618466860#10 618466860#9 618466860#8 618466860#7 618466860#6 -618466855 344411964#4 -344411964#3 344411964#2 344411964#1 -972770700#0 618466892#1 618466892#0 344411939#0"/>
    </person>
    <person id="pf_0.47" depart="470.00" color="red">
        <walk edges="714995058#4 618466860#10 618466860#9 618466860#8 618466860#7 618466860#6 -618466855 344411964#4 -344411964#3 344411964#2 344411964#1 -972770700#0 618466892#1 618466892#0 344411939#0"/>
    </person>
    <person id="pf_0.48" depart="480.00" color="red">
        <walk edges="714995058#4 618466860#10 618466860#9 618466860#8 618466860#7 618466860#6 -618466855 344411964#4 -344411964#3 344411964#2 344411964#1 -972770700#0 618466892#1 618466892#0 344411939#0"/>
    </person>
    <person id="pf_0.49" depart="490.00" color="red">
        <walk edges="714995058#4 618466860#10 618466860#9 618466860#8 618466860#7 618466860#6 -618466855 344411964#4 -344411964#3 344411964#2 344411964#1 -972770700#0 618466892#1 618466892#0 344411939#0"/>
    </person>
    <person id="pf_0.50" depart="500.00" color="red">
        <walk edges="714995058#4 618466860#10 618466860#9 618466860#8 618466860#7 618466860#6 -618466855 344411964#4 -344411964#3 344411964#2 344411964#1 -972770700#0 618466892#1 618466892#0 344411939#0"/>
    </person>
    <person id="pf_0.51" depart="510.00" color="red">
        <walk edges="714995058#4 618466860#10 618466860#9 618466860#8 618466860#7 618466860#6 -618466855 344411964#4 -344411964#3 344411964#2 344411964#1 -972770700#0 618466892#1 618466892#0 344411939#0"/>
    </person>
    <person id="pf_0.52" depart="520.00" color="red">
        <walk edges="714995058#4 618466860#10 618466860#9 618466860#8 618466860#7 618466860#6 -618466855 344411964#4 -344411964#3 344411964#2 344411964#1 -972770700#0 618466892#1 618466892#0 344411939#0"/>
    </person>
    <person id="pf_0.53" depart="530.00" color="red">
        <walk edges="714995058#4 618466860#10 618466860#9 618466860#8 618466860#7 618466860#6 -618466855 344411964#4 -344411964#3 344411964#2 344411964#1 -972770700#0 618466892#1 618466892#0 344411939#0"/>
    </person>
    <person id="pf_0.54" depart="540.00" color="red">
        <walk edges="714995058#4 618466860#10 618466860#9 618466860#8 618466860#7 618466860#6 -618466855 344411964#4 -344411964#3 344411964#2 344411964#1 -972770700#0 618466892#1 618466892#0 344411939#0"/>
    </person>
    <person id="pf_0.55" depart="550.00" color="red">
        <walk edges="714995058#4 618466860#10 618466860#9 618466860#8 618466860#7 618466860#6 -618466855 344411964#4 -344411964#3 344411964#2 344411964#1 -972770700#0 618466892#1 618466892#0 344411939#0"/>
    </person>
    <person id="pf_0.56" depart="560.00" color="red">
        <walk edges="714995058#4 618466860#10 618466860#9 618466860#8 618466860#7 618466860#6 -618466855 344411964#4 -344411964#3 344411964#2 344411964#1 -972770700#0 618466892#1 618466892#0 344411939#0"/>
    </person>
    <person id="pf_0.57" depart="570.00" color="red">
        <walk edges="714995058#4 618466860#10 618466860#9 618466860#8 618466860#7 618466860#6 -618466855 344411964#4 -344411964#3 344411964#2 344411964#1 -972770700#0 618466892#1 618466892#0 344411939#0"/>
    </person>
    <person id="pf_0.58" depart="580.00" color="red">
        <walk edges="714995058#4 618466860#10 618466860#9 618466860#8 618466860#7 618466860#6 -618466855 344411964#4 -344411964#3 344411964#2 344411964#1 -972770700#0 618466892#1 618466892#0 344411939#0"/>
    </person>
    <person id="pf_0.59" depart="590.00" color="red">
        <walk edges="714995058#4 618466860#10 618466860#9 618466860#8 618466860#7 618466860#6 -618466855 344411964#4 -344411964#3 344411964#2 344411964#1 -972770700#0 618466892#1 618466892#0 344411939#0"/>
    </person>
    <person id="pf_0.60" depart="600.00" color="red">
        <walk edges="714995058#4 618466860#10 618466860#9 618466860#8 618466860#7 618466860#6 -618466855 344411964#4 -344411964#3 344411964#2 344411964#1 -972770700#0 618466892#1 618466892#0 344411939#0"/>
    </person>
    <person id="pf_0.61" depart="610.00" color="red">
        <walk edges="714995058#4 618466860#10 618466860#9 618466860#8 618466860#7 618466860#6 -618466855 344411964#4 -344411964#3 344411964#2 344411964#1 -972770700#0 618466892#1 618466892#0 344411939#0"/>
    </person>
    <person id="pf_0.62" depart="620.00" color="red">
        <walk edges="714995058#4 618466860#10 618466860#9 618466860#8 618466860#7 618466860#6 -618466855 344411964#4 -344411964#3 344411964#2 344411964#1 -972770700#0 618466892#1 618466892#0 344411939#0"/>
    </person>
    <person id="pf_0.63" depart="630.00" color="red">
        <walk edges="714995058#4 618466860#10 618466860#9 618466860#8 618466860#7 618466860#6 -618466855 344411964#4 -344411964#3 344411964#2 344411964#1 -972770700#0 618466892#1 618466892#0 344411939#0"/>
    </person>
    <person id="pf_0.64" depart="640.00" color="red">
        <walk edges="714995058#4 618466860#10 618466860#9 618466860#8 618466860#7 618466860#6 -618466855 344411964#4 -344411964#3 344411964#2 344411964#1 -972770700#0 618466892#1 618466892#0 344411939#0"/>
    </person>
    <person id="pf_0.65" depart="650.00" color="red">
        <walk edges="714995058#4 618466860#10 618466860#9 618466860#8 618466860#7 618466860#6 -618466855 344411964#4 -344411964#3 344411964#2 344411964#1 -972770700#0 618466892#1 618466892#0 344411939#0"/>
    </person>
    <person id="pf_0.66" depart="660.00" color="red">
        <walk edges="714995058#4 618466860#10 618466860#9 618466860#8 618466860#7 618466860#6 -618466855 344411964#4 -344411964#3 344411964#2 344411964#1 -972770700#0 618466892#1 618466892#0 344411939#0"/>
    </person>
    <person id="pf_0.67" depart="670.00" color="red">
        <walk edges="714995058#4 618466860#10 618466860#9 618466860#8 618466860#7 618466860#6 -618466855 344411964#4 -344411964#3 344411964#2 344411964#1 -972770700#0 618466892#1 618466892#0 344411939#0"/>
    </person>
    <person id="pf_0.68" depart="680.00" color="red">
        <walk edges="714995058#4 618466860#10 618466860#9 618466860#8 618466860#7 618466860#6 -618466855 344411964#4 -344411964#3 344411964#2 344411964#1 -972770700#0 618466892#1 618466892#0 344411939#0"/>
    </person>
    <person id="pf_0.69" depart="690.00" color="red">
        <walk edges="714995058#4 618466860#10 618466860#9 618466860#8 618466860#7 618466860#6 -618466855 344411964#4 -344411964#3 344411964#2 344411964#1 -972770700#0 618466892#1 618466892#0 344411939#0"/>
    </person>
    <person id="pf_0.70" depart="700.00" color="red">
        <walk edges="714995058#4 618466860#10 618466860#9 618466860#8 618466860#7 618466860#6 -618466855 344411964#4 -344411964#3 344411964#2 344411964#1 -972770700#0 618466892#1 618466892#0 344411939#0"/>
    </person>
    <person id="pf_0.71" depart="710.00" color="red">
        <walk edges="714995058#4 618466860#10 618466860#9 618466860#8 618466860#7 618466860#6 -618466855 344411964#4 -344411964#3 344411964#2 344411964#1 -972770700#0 618466892#1 618466892#0 344411939#0"/>
    </person>
    <person id="pf_0.72" depart="720.00" color="red">
        <walk edges="714995058#4 618466860#10 618466860#9 618466860#8 618466860#7 618466860#6 -618466855 344411964#4 -344411964#3 344411964#2 344411964#1 -972770700#0 618466892#1 618466892#0 344411939#0"/>
    </person>
    <person id="pf_0.73" depart="730.00" color="red">
        <walk edges="714995058#4 618466860#10 618466860#9 618466860#8 618466860#7 618466860#6 -618466855 344411964#4 -344411964#3 344411964#2 344411964#1 -972770700#0 618466892#1 618466892#0 344411939#0"/>
    </person>
    <person id="pf_0.74" depart="740.00" color="red">
        <walk edges="714995058#4 618466860#10 618466860#9 618466860#8 618466860#7 618466860#6 -618466855 344411964#4 -344411964#3 344411964#2 344411964#1 -972770700#0 618466892#1 618466892#0 344411939#0"/>
    </person>
    <person id="pf_0.75" depart="750.00" color="red">
        <walk edges="714995058#4 618466860#10 618466860#9 618466860#8 618466860#7 618466860#6 -618466855 344411964#4 -344411964#3 344411964#2 344411964#1 -972770700#0 618466892#1 618466892#0 344411939#0"/>
    </person>
    <person id="pf_0.76" depart="760.00" color="red">
        <walk edges="714995058#4 618466860#10 618466860#9 618466860#8 618466860#7 618466860#6 -618466855 344411964#4 -344411964#3 344411964#2 344411964#1 -972770700#0 618466892#1 618466892#0 344411939#0"/>
    </person>
    <person id="pf_0.77" depart="770.00" color="red">
        <walk edges="714995058#4 618466860#10 618466860#9 618466860#8 618466860#7 618466860#6 -618466855 344411964#4 -344411964#3 344411964#2 344411964#1 -972770700#0 618466892#1 618466892#0 344411939#0"/>
    </person>
    <person id="pf_0.78" depart="780.00" color="red">
        <walk edges="714995058#4 618466860#10 618466860#9 618466860#8 618466860#7 618466860#6 -618466855 344411964#4 -344411964#3 344411964#2 344411964#1 -972770700#0 618466892#1 618466892#0 344411939#0"/>
    </person>
    <person id="pf_0.79" depart="790.00" color="red">
        <walk edges="714995058#4 618466860#10 618466860#9 618466860#8 618466860#7 618466860#6 -618466855 344411964#4 -344411964#3 344411964#2 344411964#1 -972770700#0 618466892#1 618466892#0 344411939#0"/>
    </person>
    <person id="pf_0.80" depart="800.00" color="red">
        <walk edges="714995058#4 618466860#10 618466860#9 618466860#8 618466860#7 618466860#6 -618466855 344411964#4 -344411964#3 344411964#2 344411964#1 -972770700#0 618466892#1 618466892#0 344411939#0"/>
    </person>
    <person id="pf_0.81" depart="810.00" color="red">
        <walk edges="714995058#4 618466860#10 618466860#9 618466860#8 618466860#7 618466860#6 -618466855 344411964#4 -344411964#3 344411964#2 344411964#1 -972770700#0 618466892#1 618466892#0 344411939#0"/>
    </person>
    <person id="pf_0.82" depart="820.00" color="red">
        <walk edges="714995058#4 618466860#10 618466860#9 618466860#8 618466860#7 618466860#6 -618466855 344411964#4 -344411964#3 344411964#2 344411964#1 -972770700#0 618466892#1 618466892#0 344411939#0"/>
    </person>
    <person id="pf_0.83" depart="830.00" color="red">
        <walk edges="714995058#4 618466860#10 618466860#9 618466860#8 618466860#7 618466860#6 -618466855 344411964#4 -344411964#3 344411964#2 344411964#1 -972770700#0 618466892#1 618466892#0 344411939#0"/>
    </person>
    <person id="pf_0.84" depart="840.00" color="red">
        <walk edges="714995058#4 618466860#10 618466860#9 618466860#8 618466860#7 618466860#6 -618466855 344411964#4 -344411964#3 344411964#2 344411964#1 -972770700#0 618466892#1 618466892#0 344411939#0"/>
    </person>
    <person id="pf_0.85" depart="850.00" color="red">
        <walk edges="714995058#4 618466860#10 618466860#9 618466860#8 618466860#7 618466860#6 -618466855 344411964#4 -344411964#3 344411964#2 344411964#1 -972770700#0 618466892#1 618466892#0 344411939#0"/>
    </person>
    <person id="pf_0.86" depart="860.00" color="red">
        <walk edges="714995058#4 618466860#10 618466860#9 618466860#8 618466860#7 618466860#6 -618466855 344411964#4 -344411964#3 344411964#2 344411964#1 -972770700#0 618466892#1 618466892#0 344411939#0"/>
    </person>
    <person id="pf_0.87" depart="870.00" color="red">
        <walk edges="714995058#4 618466860#10 618466860#9 618466860#8 618466860#7 618466860#6 -618466855 344411964#4 -344411964#3 344411964#2 344411964#1 -972770700#0 618466892#1 618466892#0 344411939#0"/>
    </person>
    <person id="pf_0.88" depart="880.00" color="red">
        <walk edges="714995058#4 618466860#10 618466860#9 618466860#8 618466860#7 618466860#6 -618466855 344411964#4 -344411964#3 344411964#2 344411964#1 -972770700#0 618466892#1 618466892#0 344411939#0"/>
    </person>
    <person id="pf_0.89" depart="890.00" color="red">
        <walk edges="714995058#4 618466860#10 618466860#9 618466860#8 618466860#7 618466860#6 -618466855 344411964#4 -344411964#3 344411964#2 344411964#1 -972770700#0 618466892#1 618466892#0 344411939#0"/>
    </person>
    <person id="pf_0.90" depart="900.00" color="red">
        <walk edges="714995058#4 618466860#10 618466860#9 618466860#8 618466860#7 618466860#6 -618466855 344411964#4 -344411964#3 344411964#2 344411964#1 -972770700#0 618466892#1 618466892#0 344411939#0"/>
    </person>
    <person id="pf_0.91" depart="910.00" color="red">
        <walk edges="714995058#4 618466860#10 618466860#9 618466860#8 618466860#7 618466860#6 -618466855 344411964#4 -344411964#3 344411964#2 344411964#1 -972770700#0 618466892#1 618466892#0 344411939#0"/>
    </person>
    <person id="pf_0.92" depart="920.00" color="red">
        <walk edges="714995058#4 618466860#10 618466860#9 618466860#8 618466860#7 618466860#6 -618466855 344411964#4 -344411964#3 344411964#2 344411964#1 -972770700#0 618466892#1 618466892#0 344411939#0"/>
    </person>
    <person id="pf_0.93" depart="930.00" color="red">
        <walk edges="714995058#4 618466860#10 618466860#9 618466860#8 618466860#7 618466860#6 -618466855 344411964#4 -344411964#3 344411964#2 344411964#1 -972770700#0 618466892#1 618466892#0 344411939#0"/>
    </person>
    <person id="pf_0.94" depart="940.00" color="red">
        <walk edges="714995058#4 618466860#10 618466860#9 618466860#8 618466860#7 618466860#6 -618466855 344411964#4 -344411964#3 344411964#2 344411964#1 -972770700#0 618466892#1 618466892#0 344411939#0"/>
    </person>
    <person id="pf_0.95" depart="950.00" color="red">
        <walk edges="714995058#4 618466860#10 618466860#9 618466860#8 618466860#7 618466860#6 -618466855 344411964#4 -344411964#3 344411964#2 344411964#1 -972770700#0 618466892#1 618466892#0 344411939#0"/>
    </person>
    <person id="pf_0.96" depart="960.00" color="red">
        <walk edges="714995058#4 618466860#10 618466860#9 618466860#8 618466860#7 618466860#6 -618466855 344411964#4 -344411964#3 344411964#2 344411964#1 -972770700#0 618466892#1 618466892#0 344411939#0"/>
    </person>
    <person id="pf_0.97" depart="970.00" color="red">
        <walk edges="714995058#4 618466860#10 618466860#9 618466860#8 618466860#7 618466860#6 -618466855 344411964#4 -344411964#3 344411964#2 344411964#1 -972770700#0 618466892#1 618466892#0 344411939#0"/>
    </person>
    <person id="pf_0.98" depart="980.00" color="red">
        <walk edges="714995058#4 618466860#10 618466860#9 618466860#8 618466860#7 618466860#6 -618466855 344411964#4 -344411964#3 344411964#2 344411964#1 -972770700#0 618466892#1 618466892#0 344411939#0"/>
    </person>
    <person id="pf_0.99" depart="990.00" color="red">
        <walk edges="714995058#4 618466860#10 618466860#9 618466860#8 618466860#7 618466860#6 -618466855 344411964#4 -344411964#3 344411964#2 344411964#1 -972770700#0 618466892#1 618466892#0 344411939#0"/>
    </person>
    <person id="pf_0.100" depart="1000.00" color="red">
        <walk edges="714995058#4 618466860#10 618466860#9 618466860#8 618466860#7 618466860#6 -618466855 344411964#4 -344411964#3 344411964#2 344411964#1 -972770700#0 618466892#1 618466892#0 344411939#0"/>
    </person>
    <person id="pf_0.101" depart="1010.00" color="red">
        <walk edges="714995058#4 618466860#10 618466860#9 618466860#8 618466860#7 618466860#6 -618466855 344411964#4 -344411964#3 344411964#2 344411964#1 -972770700#0 618466892#1 618466892#0 344411939#0"/>
    </person>
    <person id="pf_0.102" depart="1020.00" color="red">
        <walk edges="714995058#4 618466860#10 618466860#9 618466860#8 618466860#7 618466860#6 -618466855 344411964#4 -344411964#3 344411964#2 344411964#1 -972770700#0 618466892#1 618466892#0 344411939#0"/>
    </person>
    <person id="pf_0.103" depart="1030.00" color="red">
        <walk edges="714995058#4 618466860#10 618466860#9 618466860#8 618466860#7 618466860#6 -618466855 344411964#4 -344411964#3 344411964#2 344411964#1 -972770700#0 618466892#1 618466892#0 344411939#0"/>
    </person>
    <person id="pf_0.104" depart="1040.00" color="red">
        <walk edges="714995058#4 618466860#10 618466860#9 618466860#8 618466860#7 618466860#6 -618466855 344411964#4 -344411964#3 344411964#2 344411964#1 -972770700#0 618466892#1 618466892#0 344411939#0"/>
    </person>
    <person id="pf_0.105" depart="1050.00" color="red">
        <walk edges="714995058#4 618466860#10 618466860#9 618466860#8 618466860#7 618466860#6 -618466855 344411964#4 -344411964#3 344411964#2 344411964#1 -972770700#0 618466892#1 618466892#0 344411939#0"/>
    </person>
    <person id="pf_0.106" depart="1060.00" color="red">
        <walk edges="714995058#4 618466860#10 618466860#9 618466860#8 618466860#7 618466860#6 -618466855 344411964#4 -344411964#3 344411964#2 344411964#1 -972770700#0 618466892#1 618466892#0 344411939#0"/>
    </person>