<?xml version="1.0" encoding="UTF-8"?>

<configuration>
   <input>
       <net-file value="osm.net.xml"/>
       <route-files value="person.rou.xml"/> <!-- failed -->
       <!-- <route-files value="person.flow.xml"/> passed -->
       <additional-files value="grid.taz.add.xml,bus.stop.add.xml"/>
   </input>
   <time>
        <begin value="0"/>
        <end value="10000"/>
   </time>
</configuration>