<?xml version="1.0" encoding="UTF-8"?>

<!-- generated on 2024-03-18 23:43:16 by Eclipse SUMO netedit Version 1.19.0
-->

<additional xmlns:xsi="http://www.w3.org/2001/XMLSchema-instance" xsi:noNamespaceSchemaLocation="http://sumo.dlr.de/xsd/additional_file.xsd">
    <!-- TAZs -->
    <taz id="taz_0" shape="11608.68,5736.98 11581.70,5659.03 11571.95,5600.56 11636.41,5554.84 11736.85,5536.10 11796.06,5606.56 11807.31,5712.24 11709.87,5829.17 11616.92,5783.45 11607.93,5733.98 11608.68,5736.98" color="blue">
        <tazSource id="-308670729#1" weight="1.00"/>
        <tazSink id="-308670729#1" weight="1.00"/>
        <tazSource id="-308670729#2" weight="1.00"/>
        <tazSink id="-308670729#2" weight="1.00"/>
        <tazSource id="-308670736#1" weight="1.00"/>
        <tazSink id="-308670736#1" weight="1.00"/>
        <tazSource id="-344411934#16" weight="1.00"/>
        <tazSink id="-344411934#16" weight="1.00"/>
        <tazSource id="-344508930#1" weight="1.00"/>
        <tazSink id="-344508930#1" weight="1.00"/>
        <tazSource id="-344508930#3" weight="1.00"/>
        <tazSink id="-344508930#3" weight="1.00"/>
        <tazSource id="-344508930#5" weight="1.00"/>
        <tazSink id="-344508930#5" weight="1.00"/>
        <tazSource id="-344508930#7" weight="1.00"/>
        <tazSink id="-344508930#7" weight="1.00"/>
        <tazSource id="-344511383#0" weight="1.00"/>
        <tazSink id="-344511383#0" weight="1.00"/>
        <tazSource id="-344511401#1" weight="1.00"/>
        <tazSink id="-344511401#1" weight="1.00"/>
        <tazSource id="-344511401#2" weight="1.00"/>
        <tazSink id="-344511401#2" weight="1.00"/>
        <tazSource id="-344511418#1" weight="1.00"/>
        <tazSink id="-344511418#1" weight="1.00"/>
        <tazSource id="-344511418#2" weight="1.00"/>
        <tazSink id="-344511418#2" weight="1.00"/>
        <tazSource id="-462699299#0" weight="1.00"/>
        <tazSink id="-462699299#0" weight="1.00"/>
        <tazSource id="-462699299#1" weight="1.00"/>
        <tazSink id="-462699299#1" weight="1.00"/>
        <tazSource id="-462699300#0" weight="1.00"/>
        <tazSink id="-462699300#0" weight="1.00"/>
        <tazSource id="-462722051#1" weight="1.00"/>
        <tazSink id="-462722051#1" weight="1.00"/>
        <tazSource id="-686912267#0" weight="1.00"/>
        <tazSink id="-686912267#0" weight="1.00"/>
        <tazSource id="-686912267#1" weight="1.00"/>
        <tazSink id="-686912267#1" weight="1.00"/>
        <tazSource id="-686912267#2" weight="1.00"/>
        <tazSink id="-686912267#2" weight="1.00"/>
        <tazSource id="-686912267#3" weight="1.00"/>
        <tazSink id="-686912267#3" weight="1.00"/>
        <tazSource id="-686912267#4" weight="1.00"/>
        <tazSink id="-686912267#4" weight="1.00"/>
        <tazSource id="-714993864#1" weight="1.00"/>
        <tazSink id="-714993864#1" weight="1.00"/>
        <tazSource id="-714993864#4" weight="1.00"/>
        <tazSink id="-714993864#4" weight="1.00"/>
        <tazSource id="-714993864#5" weight="1.00"/>
        <tazSink id="-714993864#5" weight="1.00"/>
        <tazSource id="-714993865#1" weight="1.00"/>
        <tazSink id="-714993865#1" weight="1.00"/>
        <tazSource id="-845234960#0" weight="1.00"/>
        <tazSink id="-845234960#0" weight="1.00"/>
        <tazSource id="-845234961#0" weight="1.00"/>
        <tazSink id="-845234961#0" weight="1.00"/>
        <tazSource id="-845234961#1" weight="1.00"/>
        <tazSink id="-845234961#1" weight="1.00"/>
        <tazSource id="-974155721" weight="1.00"/>
        <tazSink id="-974155721" weight="1.00"/>
        <tazSource id="1010155675#0" weight="1.00"/>
        <tazSink id="1010155675#0" weight="1.00"/>
        <tazSource id="1010155675#1" weight="1.00"/>
        <tazSink id="1010155675#1" weight="1.00"/>
        <tazSource id="308670729#1" weight="1.00"/>
        <tazSink id="308670729#1" weight="1.00"/>
        <tazSource id="308670729#2" weight="1.00"/>
        <tazSink id="308670729#2" weight="1.00"/>
        <tazSource id="308670736#1" weight="1.00"/>
        <tazSink id="308670736#1" weight="1.00"/>
        <tazSource id="344411934#16" weight="1.00"/>
        <tazSink id="344411934#16" weight="1.00"/>
        <tazSource id="344508930#1" weight="1.00"/>
        <tazSink id="344508930#1" weight="1.00"/>
        <tazSource id="344508930#3" weight="1.00"/>
        <tazSink id="344508930#3" weight="1.00"/>
        <tazSource id="344508930#5" weight="1.00"/>
        <tazSink id="344508930#5" weight="1.00"/>
        <tazSource id="344508930#7" weight="1.00"/>
        <tazSink id="344508930#7" weight="1.00"/>
        <tazSource id="344511383#0" weight="1.00"/>
        <tazSink id="344511383#0" weight="1.00"/>
        <tazSource id="344511391#0" weight="1.00"/>
        <tazSink id="344511391#0" weight="1.00"/>
        <tazSource id="344511391#1" weight="1.00"/>
        <tazSink id="344511391#1" weight="1.00"/>
        <tazSource id="344511391#2" weight="1.00"/>
        <tazSink id="344511391#2" weight="1.00"/>
        <tazSource id="344511391#3" weight="1.00"/>
        <tazSink id="344511391#3" weight="1.00"/>
        <tazSource id="344511391#4" weight="1.00"/>
        <tazSink id="344511391#4" weight="1.00"/>
        <tazSource id="344511398#2" weight="1.00"/>
        <tazSink id="344511398#2" weight="1.00"/>
        <tazSource id="344511401#1" weight="1.00"/>
        <tazSink id="344511401#1" weight="1.00"/>
        <tazSource id="344511401#2" weight="1.00"/>
        <tazSink id="344511401#2" weight="1.00"/>
        <tazSource id="344511418#1" weight="1.00"/>
        <tazSink id="344511418#1" weight="1.00"/>
        <tazSource id="344511418#2" weight="1.00"/>
        <tazSink id="344511418#2" weight="1.00"/>
        <tazSource id="344536785" weight="1.00"/>
        <tazSink id="344536785" weight="1.00"/>
        <tazSource id="462699299#0" weight="1.00"/>
        <tazSink id="462699299#0" weight="1.00"/>
        <tazSource id="462699299#1" weight="1.00"/>
        <tazSink id="462699299#1" weight="1.00"/>
        <tazSource id="462699300#0" weight="1.00"/>
        <tazSink id="462699300#0" weight="1.00"/>
        <tazSource id="462719354" weight="1.00"/>
        <tazSink id="462719354" weight="1.00"/>
        <tazSource id="462722051#1" weight="1.00"/>
        <tazSink id="462722051#1" weight="1.00"/>
        <tazSource id="686912267#0" weight="1.00"/>
        <tazSink id="686912267#0" weight="1.00"/>
        <tazSource id="686912267#1" weight="1.00"/>
        <tazSink id="686912267#1" weight="1.00"/>
        <tazSource id="686912267#2" weight="1.00"/>
        <tazSink id="686912267#2" weight="1.00"/>
        <tazSource id="686912267#3" weight="1.00"/>
        <tazSink id="686912267#3" weight="1.00"/>
        <tazSource id="686912267#4" weight="1.00"/>
        <tazSink id="686912267#4" weight="1.00"/>
        <tazSource id="714993845#0" weight="1.00"/>
        <tazSink id="714993845#0" weight="1.00"/>
        <tazSource id="714993845#1" weight="1.00"/>
        <tazSink id="714993845#1" weight="1.00"/>
        <tazSource id="714993845#2" weight="1.00"/>
        <tazSink id="714993845#2" weight="1.00"/>
        <tazSource id="714993845#3" weight="1.00"/>
        <tazSink id="714993845#3" weight="1.00"/>
        <tazSource id="714993848#0" weight="1.00"/>
        <tazSink id="714993848#0" weight="1.00"/>
        <tazSource id="714993848#1" weight="1.00"/>
        <tazSink id="714993848#1" weight="1.00"/>
        <tazSource id="714993849#0" weight="1.00"/>
        <tazSink id="714993849#0" weight="1.00"/>
        <tazSource id="714993849#1" weight="1.00"/>
        <tazSink id="714993849#1" weight="1.00"/>
        <tazSource id="714993849#2" weight="1.00"/>
        <tazSink id="714993849#2" weight="1.00"/>
        <tazSource id="714993849#3" weight="1.00"/>
        <tazSink id="714993849#3" weight="1.00"/>
        <tazSource id="714993849#4" weight="1.00"/>
        <tazSink id="714993849#4" weight="1.00"/>
        <tazSource id="714993850#2" weight="1.00"/>
        <tazSink id="714993850#2" weight="1.00"/>
        <tazSource id="714993850#3" weight="1.00"/>
        <tazSink id="714993850#3" weight="1.00"/>
        <tazSource id="714993850#4" weight="1.00"/>
        <tazSink id="714993850#4" weight="1.00"/>
        <tazSource id="714993855#2" weight="1.00"/>
        <tazSink id="714993855#2" weight="1.00"/>
        <tazSource id="714993855#3" weight="1.00"/>
        <tazSink id="714993855#3" weight="1.00"/>
        <tazSource id="714993855#4" weight="1.00"/>
        <tazSink id="714993855#4" weight="1.00"/>
        <tazSource id="714993855#5" weight="1.00"/>
        <tazSink id="714993855#5" weight="1.00"/>
        <tazSource id="714993857#0" weight="1.00"/>
        <tazSink id="714993857#0" weight="1.00"/>
        <tazSource id="714993857#1" weight="1.00"/>
        <tazSink id="714993857#1" weight="1.00"/>
        <tazSource id="714993857#2" weight="1.00"/>
        <tazSink id="714993857#2" weight="1.00"/>
        <tazSource id="714993857#4" weight="1.00"/>
        <tazSink id="714993857#4" weight="1.00"/>
        <tazSource id="714993857#5" weight="1.00"/>
        <tazSink id="714993857#5" weight="1.00"/>
        <tazSource id="714993857#6" weight="1.00"/>
        <tazSink id="714993857#6" weight="1.00"/>
        <tazSource id="714993858#0" weight="1.00"/>
        <tazSink id="714993858#0" weight="1.00"/>
        <tazSource id="714993858#1" weight="1.00"/>
        <tazSink id="714993858#1" weight="1.00"/>
        <tazSource id="714993859#0" weight="1.00"/>
        <tazSink id="714993859#0" weight="1.00"/>
        <tazSource id="714993859#1" weight="1.00"/>
        <tazSink id="714993859#1" weight="1.00"/>
        <tazSource id="714993860#0" weight="1.00"/>
        <tazSink id="714993860#0" weight="1.00"/>
        <tazSource id="714993860#1" weight="1.00"/>
        <tazSink id="714993860#1" weight="1.00"/>
        <tazSource id="714993861#0" weight="1.00"/>
        <tazSink id="714993861#0" weight="1.00"/>
        <tazSource id="714993861#1" weight="1.00"/>
        <tazSink id="714993861#1" weight="1.00"/>
        <tazSource id="714993864#1" weight="1.00"/>
        <tazSink id="714993864#1" weight="1.00"/>
        <tazSource id="714993864#4" weight="1.00"/>
        <tazSink id="714993864#4" weight="1.00"/>
        <tazSource id="714993864#5" weight="1.00"/>
        <tazSink id="714993864#5" weight="1.00"/>
        <tazSource id="714993865#1" weight="1.00"/>
        <tazSink id="714993865#1" weight="1.00"/>
        <tazSource id="714993866#1" weight="1.00"/>
        <tazSink id="714993866#1" weight="1.00"/>
        <tazSource id="714993866#2" weight="1.00"/>
        <tazSink id="714993866#2" weight="1.00"/>
        <tazSource id="714993868#0" weight="1.00"/>
        <tazSink id="714993868#0" weight="1.00"/>
        <tazSource id="714993873#0" weight="1.00"/>
        <tazSink id="714993873#0" weight="1.00"/>
        <tazSource id="714993873#1" weight="1.00"/>
        <tazSink id="714993873#1" weight="1.00"/>
        <tazSource id="714993873#2" weight="1.00"/>
        <tazSink id="714993873#2" weight="1.00"/>
        <tazSource id="714993873#3" weight="1.00"/>
        <tazSink id="714993873#3" weight="1.00"/>
        <tazSource id="714993873#4" weight="1.00"/>
        <tazSink id="714993873#4" weight="1.00"/>
        <tazSource id="714993873#5" weight="1.00"/>
        <tazSink id="714993873#5" weight="1.00"/>
        <tazSource id="714993873#6" weight="1.00"/>
        <tazSink id="714993873#6" weight="1.00"/>
        <tazSource id="714993873#7" weight="1.00"/>
        <tazSink id="714993873#7" weight="1.00"/>
        <tazSource id="714993875#0" weight="1.00"/>
        <tazSink id="714993875#0" weight="1.00"/>
        <tazSource id="714993875#1" weight="1.00"/>
        <tazSink id="714993875#1" weight="1.00"/>
        <tazSource id="717496758" weight="1.00"/>
        <tazSink id="717496758" weight="1.00"/>
        <tazSource id="717496759#0" weight="1.00"/>
        <tazSink id="717496759#0" weight="1.00"/>
        <tazSource id="717496759#1" weight="1.00"/>
        <tazSink id="717496759#1" weight="1.00"/>
        <tazSource id="717496759#2" weight="1.00"/>
        <tazSink id="717496759#2" weight="1.00"/>
        <tazSource id="717496759#3" weight="1.00"/>
        <tazSink id="717496759#3" weight="1.00"/>
        <tazSource id="717496761" weight="1.00"/>
        <tazSink id="717496761" weight="1.00"/>
        <tazSource id="717496763" weight="1.00"/>
        <tazSink id="717496763" weight="1.00"/>
        <tazSource id="717496764#0" weight="1.00"/>
        <tazSink id="717496764#0" weight="1.00"/>
        <tazSource id="717496764#1" weight="1.00"/>
        <tazSink id="717496764#1" weight="1.00"/>
        <tazSource id="717496765#0" weight="1.00"/>
        <tazSink id="717496765#0" weight="1.00"/>
        <tazSource id="717496765#1" weight="1.00"/>
        <tazSink id="717496765#1" weight="1.00"/>
        <tazSource id="845234960#0" weight="1.00"/>
        <tazSink id="845234960#0" weight="1.00"/>
        <tazSource id="845234961#0" weight="1.00"/>
        <tazSink id="845234961#0" weight="1.00"/>
        <tazSource id="845234961#1" weight="1.00"/>
        <tazSink id="845234961#1" weight="1.00"/>
        <tazSource id="845234962" weight="1.00"/>
        <tazSink id="845234962" weight="1.00"/>
        <tazSource id="845234963" weight="1.00"/>
        <tazSink id="845234963" weight="1.00"/>
    </taz>
    <taz id="taz_1" shape="11990.60,6638.76 11885.58,6594.09 11903.69,6491.49 12009.92,6397.33 12118.56,6456.48 12072.69,6609.79 11988.19,6636.34 11990.60,6638.76" color="blue">
        <tazSource id="-344126068#1" weight="1.00"/>
        <tazSink id="-344126068#1" weight="1.00"/>
        <tazSource id="-344126068#2" weight="1.00"/>
        <tazSink id="-344126068#2" weight="1.00"/>
        <tazSource id="-344129892#1" weight="1.00"/>
        <tazSink id="-344129892#1" weight="1.00"/>
        <tazSource id="-344129892#2" weight="1.00"/>
        <tazSink id="-344129892#2" weight="1.00"/>
        <tazSource id="-344129892#3" weight="1.00"/>
        <tazSink id="-344129892#3" weight="1.00"/>
        <tazSource id="-344129922#1" weight="1.00"/>
        <tazSink id="-344129922#1" weight="1.00"/>
        <tazSource id="-344129922#3" weight="1.00"/>
        <tazSink id="-344129922#3" weight="1.00"/>
        <tazSource id="-344129924#1" weight="1.00"/>
        <tazSink id="-344129924#1" weight="1.00"/>
        <tazSource id="-344380479#1" weight="1.00"/>
        <tazSink id="-344380479#1" weight="1.00"/>
        <tazSource id="-344380479#2" weight="1.00"/>
        <tazSink id="-344380479#2" weight="1.00"/>
        <tazSource id="-344411958#0" weight="1.00"/>
        <tazSink id="-344411958#0" weight="1.00"/>
        <tazSource id="-617745712" weight="1.00"/>
        <tazSink id="-617745712" weight="1.00"/>
        <tazSource id="-618466860#0" weight="1.00"/>
        <tazSink id="-618466860#0" weight="1.00"/>
        <tazSource id="-618466860#2" weight="1.00"/>
        <tazSink id="-618466860#2" weight="1.00"/>
        <tazSource id="-618466860#3" weight="1.00"/>
        <tazSink id="-618466860#3" weight="1.00"/>
        <tazSource id="-625860473#1" weight="1.00"/>
        <tazSink id="-625860473#1" weight="1.00"/>
        <tazSource id="-626205190" weight="1.00"/>
        <tazSink id="-626205190" weight="1.00"/>
        <tazSource id="-633880131" weight="1.00"/>
        <tazSink id="-633880131" weight="1.00"/>
        <tazSource id="-972770668#1" weight="1.00"/>
        <tazSink id="-972770668#1" weight="1.00"/>
        <tazSource id="-972770668#2" weight="1.00"/>
        <tazSink id="-972770668#2" weight="1.00"/>
        <tazSource id="-972770668#3" weight="1.00"/>
        <tazSink id="-972770668#3" weight="1.00"/>
        <tazSource id="-972770700#2" weight="1.00"/>
        <tazSink id="-972770700#2" weight="1.00"/>
        <tazSource id="344126068#1" weight="1.00"/>
        <tazSink id="344126068#1" weight="1.00"/>
        <tazSource id="344126068#2" weight="1.00"/>
        <tazSink id="344126068#2" weight="1.00"/>
        <tazSource id="344129892#1" weight="1.00"/>
        <tazSink id="344129892#1" weight="1.00"/>
        <tazSource id="344129892#2" weight="1.00"/>
        <tazSink id="344129892#2" weight="1.00"/>
        <tazSource id="344129892#3" weight="1.00"/>
        <tazSink id="344129892#3" weight="1.00"/>
        <tazSource id="344129922#1" weight="1.00"/>
        <tazSink id="344129922#1" weight="1.00"/>
        <tazSource id="344129922#3" weight="1.00"/>
        <tazSink id="344129922#3" weight="1.00"/>
        <tazSource id="344129924#1" weight="1.00"/>
        <tazSink id="344129924#1" weight="1.00"/>
        <tazSource id="344380479#1" weight="1.00"/>
        <tazSink id="344380479#1" weight="1.00"/>
        <tazSource id="344380479#2" weight="1.00"/>
        <tazSink id="344380479#2" weight="1.00"/>
        <tazSource id="344411958#0" weight="1.00"/>
        <tazSink id="344411958#0" weight="1.00"/>
        <tazSource id="344411971#0" weight="1.00"/>
        <tazSink id="344411971#0" weight="1.00"/>
        <tazSource id="617745712" weight="1.00"/>
        <tazSink id="617745712" weight="1.00"/>
        <tazSource id="618466860#2" weight="1.00"/>
        <tazSink id="618466860#2" weight="1.00"/>
        <tazSource id="618466860#3" weight="1.00"/>
        <tazSink id="618466860#3" weight="1.00"/>
        <tazSource id="623803302#1" weight="1.00"/>
        <tazSink id="623803302#1" weight="1.00"/>
        <tazSource id="623803302#2" weight="1.00"/>
        <tazSink id="623803302#2" weight="1.00"/>
        <tazSource id="623803303#3" weight="1.00"/>
        <tazSink id="623803303#3" weight="1.00"/>
        <tazSource id="623803304#0" weight="1.00"/>
        <tazSink id="623803304#0" weight="1.00"/>
        <tazSource id="623803304#1" weight="1.00"/>
        <tazSink id="623803304#1" weight="1.00"/>
        <tazSource id="623803305#0" weight="1.00"/>
        <tazSink id="623803305#0" weight="1.00"/>
        <tazSource id="623803305#1" weight="1.00"/>
        <tazSink id="623803305#1" weight="1.00"/>
        <tazSource id="623803305#2" weight="1.00"/>
        <tazSink id="623803305#2" weight="1.00"/>
        <tazSource id="623803307#0" weight="1.00"/>
        <tazSink id="623803307#0" weight="1.00"/>
        <tazSource id="623803307#1" weight="1.00"/>
        <tazSink id="623803307#1" weight="1.00"/>
        <tazSource id="623803309#0" weight="1.00"/>
        <tazSink id="623803309#0" weight="1.00"/>
        <tazSource id="623803309#1" weight="1.00"/>
        <tazSink id="623803309#1" weight="1.00"/>
        <tazSource id="625860473#1" weight="1.00"/>
        <tazSink id="625860473#1" weight="1.00"/>
        <tazSource id="626205190" weight="1.00"/>
        <tazSink id="626205190" weight="1.00"/>
        <tazSource id="633880131" weight="1.00"/>
        <tazSink id="633880131" weight="1.00"/>
        <tazSource id="972770668#1" weight="1.00"/>
        <tazSink id="972770668#1" weight="1.00"/>
        <tazSource id="972770668#2" weight="1.00"/>
        <tazSink id="972770668#2" weight="1.00"/>
        <tazSource id="972770668#3" weight="1.00"/>
        <tazSink id="972770668#3" weight="1.00"/>
        <tazSource id="972770669#0" weight="1.00"/>
        <tazSink id="972770669#0" weight="1.00"/>
        <tazSource id="972770669#1" weight="1.00"/>
        <tazSink id="972770669#1" weight="1.00"/>
        <tazSource id="972770670#1" weight="1.00"/>
        <tazSink id="972770670#1" weight="1.00"/>
        <tazSource id="972770671#1" weight="1.00"/>
        <tazSink id="972770671#1" weight="1.00"/>
        <tazSource id="972770672#0" weight="1.00"/>
        <tazSink id="972770672#0" weight="1.00"/>
        <tazSource id="972770672#1" weight="1.00"/>
        <tazSink id="972770672#1" weight="1.00"/>
        <tazSource id="972770673#0" weight="1.00"/>
        <tazSink id="972770673#0" weight="1.00"/>
        <tazSource id="972770673#1" weight="1.00"/>
        <tazSink id="972770673#1" weight="1.00"/>
        <tazSource id="972770693#1" weight="1.00"/>
        <tazSink id="972770693#1" weight="1.00"/>
        <tazSource id="972770695#1" weight="1.00"/>
        <tazSink id="972770695#1" weight="1.00"/>
        <tazSource id="972770700#2" weight="1.00"/>
        <tazSink id="972770700#2" weight="1.00"/>
        <tazSource id="972770700#3" weight="1.00"/>
        <tazSink id="972770700#3" weight="1.00"/>
    </taz>
</additional>
