<?xml version="1.0" encoding="UTF-8"?>

<!-- generated on 2024-03-18 23:42:11 by Eclipse SUMO netedit Version 1.19.0
-->

<routes xmlns:xsi="http://www.w3.org/2001/XMLSchema-instance" xsi:noNamespaceSchemaLocation="http://sumo.dlr.de/xsd/routes_file.xsd">
    <!-- Vehicles, persons and containers (sorted by depart) -->
    <person id="p_0" depart="0.00">
        <personTrip fromTaz="taz_0" toTaz="taz_1" lines="ANY"/>
    </person>
</routes>
